[General]

network = simplenetwork
sim-time-limit = 50s
record-eventlog=false
cmdenv-express-mode = true
cmdenv-redirect-output = false
cmdenv-output-file = dctcpLog.txt
**.client*.tcp.conn-8.cmdenv-log-level = detail
cmdenv-log-prefix = %t | %m |


cmdenv-event-banners = false
**.cmdenv-log-level = off

**.**.tcp.conn-*.cwnd:vector.vector-recording = true
**.**.tcp.conn-*.u:vector.vector-recording = true
**.**.tcp.conn-*.U:vector.vector-recording = true
**.**.tcp.conn-*.additiveIncrease:vector.vector-recording = true
c**.**.tcp.conn-*.sharingFlows:vector.vector-recording = true
**.**.tcp.conn-*.tau:vector.vector-recording = true
**.**.tcp.conn-*.txRate:vector.vector-recording = true
**.**.tcp.conn-*.rtt:vector.vector-recording = true
**.**.tcp.conn-*.lossRecovery:vector.vector-recording = true
**.**.tcp.conn-*.srtt:vector.vector-recording = true
**.**.tcp.conn-*.queueingDelay:vector.vector-recording = true
**.**.tcp.conn-*.estimatedRtt:vector.vector-recording = true
**.**.tcp.conn-*.avgRtt:vector.vector-recording = true
**.**.tcp.conn-*.ssthresh:vector.vector-recording = true
**.**.queue.queueLength:vector.vector-recording = true
**.**.queue.queueingTime:vector.vector-recording = true
**.**.queue.avgRttQueue:vector.vector-recording = true
**.**.goodput:vector.vector-recording = true
**.**.throughput:vector.vector-recording = true
**.**.numberOfFlows:vector.vector-recording = true
**.**.alpha:vector.vector-recording = true
**.**.mbytesInFlight:vector.vector-recording = true
**.**.persistentQueueingDelay:vector.vector-recording = true
**.scalar-recording=false
**.vector-recording=true
**.bin-recording=false

**.goodputInterval = 1s
**.throughputInterval = 1s

**.tcp.typename = "TcpPaced"
**.tcp.tcpAlgorithmClass = "TcpCubic"
**.tcp.advertisedWindow = 200000000
**.tcp.windowScalingSupport = true
**.tcp.windowScalingFactor = -1
**.tcp.increasedIWEnabled = true
**.tcp.delayedAcksEnabled = false
**.tcp.timestampSupport = true
**.tcp.ecnWillingness = false
**.tcp.nagleEnabled = true
**.tcp.stopOperationTimeout = 4000s
**.tcp.mss = 1448
**.tcp.sackSupport = true
**.client[*].numApps = 1
**.client[*].app[*].typename  = "TcpGoodputSessionApp"
*.client[*].app[0].tClose = -1s
*.client[*].app[0].sendBytes = 2GB
*.client[*].app[0].dataTransferMode = "bytecount"
*.client[*].app[0].statistic-recording = true

**.server[*].numApps = 1
**.server[*].app[*].typename  = "TcpSinkApp"
**.server[*].app[*].serverThreadModuleType = "tcpgoodputapplications.applications.tcpapp.TcpGoodputSinkAppThread"

**.ppp[*].queue.typename = "DropTailQueue"

[Config OneFlow1ms]
extends = General

**.numberOfFlows = 1

*.client[0].app[0].connectAddress = "server[0]"
*.client[0].app[0].tOpen = 0s
*.client[0].app[0].tSend = 0s

*.client[*].app[0].connectAddress = "server[" + string(parentIndex()) +"]"
*.client[*].app[0].tOpen = 0s
*.client[*].app[0].tSend = uniform(0s,100s)

**.ppp[*].queue.packetCapacity = 12

*.scenarioManager.script = xmldoc("../scenarios/oneFlows/1ms.xml")

**.tcp.initialSsthresh = 17520

[Config OneFlow25ms]
extends = General

**.numberOfFlows = 1

*.client[0].app[0].connectAddress = "server[0]"
*.client[0].app[0].tOpen = 0s
*.client[0].app[0].tSend = 0s

*.client[*].app[0].connectAddress = "server[" + string(parentIndex()) +"]"
*.client[*].app[0].tOpen = 0s
*.client[*].app[0].tSend = uniform(0s,100s)

**.ppp[*].queue.packetCapacity = 321

*.scenarioManager.script = xmldoc("../scenarios/oneFlows/25ms.xml")

**.tcp.initialSsthresh = 468660

[Config OneFlow75ms]
extends = General

**.numberOfFlows = 1

*.client[0].app[0].connectAddress = "server[0]"
*.client[0].app[0].tOpen = 0s
*.client[0].app[0].tSend = 0s

*.client[*].app[0].connectAddress = "server[" + string(parentIndex()) +"]"
*.client[*].app[0].tOpen = 0s
*.client[*].app[0].tSend = uniform(0s,100s)

**.ppp[*].queue.packetCapacity = 963

*.scenarioManager.script = xmldoc("../scenarios/oneFlows/75ms.xml")

**.tcp.initialSsthresh = 1405980

[Config OneFlow100ms]
extends = General

**.numberOfFlows = 1

*.client[0].app[0].connectAddress = "server[0]"
*.client[0].app[0].tOpen = 0s
*.client[0].app[0].tSend = 0s

*.client[*].app[0].connectAddress = "server[" + string(parentIndex()) +"]"
*.client[*].app[0].tOpen = 0s
*.client[*].app[0].tSend = uniform(0s,100s)

**.ppp[*].queue.packetCapacity = 1284

*.scenarioManager.script = xmldoc("../scenarios/oneFlows/100ms.xml")

**.tcp.initialSsthresh = 1874640

[Config OneFlow50ms]
extends = General

**.numberOfFlows = 1

*.client[0].app[0].connectAddress = "server[0]"
*.client[0].app[0].tOpen = 0s
*.client[0].app[0].tSend = 0s

*.client[*].app[0].connectAddress = "server[" + string(parentIndex()) +"]"
*.client[*].app[0].tOpen = 1s
*.client[*].app[0].tSend = 1s

**.ppp[*].queue.packetCapacity = 400

*.scenarioManager.script = xmldoc("../scenarios/oneFlows/50ms.xml")

**.tcp.initialSsthresh = 937320

[Config TwoFlows1ms75ms]
extends = General

**.numberOfFlows = 2

*.client[0].app[0].connectAddress = "server[0]"
*.client[0].app[0].tOpen = 0s
*.client[0].app[0].tSend = 0s

*.client[*].app[0].connectAddress = "server[" + string(parentIndex()) +"]"
*.client[*].app[0].tOpen = 0s
*.client[*].app[0].tSend = uniform(0s,100s)

**.ppp[*].queue.packetCapacity = 963

*.scenarioManager.script = xmldoc("../scenarios/twoFlows/1-75ms.xml")

**.tcp.initialSsthresh = 1405980

[Config TwoFlows50ms75ms]
extends = General

**.numberOfFlows = 2

*.client[0].app[0].connectAddress = "server[0]"
*.client[0].app[0].tOpen = 0s
*.client[0].app[0].tSend = 0s

*.client[*].app[0].connectAddress = "server[" + string(parentIndex()) +"]"
*.client[*].app[0].tOpen = 0s
*.client[*].app[0].tSend = uniform(0s,10s)

**.ppp[*].queue.packetCapacity = 963

*.scenarioManager.script = xmldoc("../scenarios/twoFlows/50-75ms.xml")

**.tcp.initialSsthresh = 1405980

[Config TwoFlows100ms100ms]
extends = General

**.numberOfFlows = 2

*.client[0].app[0].connectAddress = "server[0]"
*.client[0].app[0].tOpen = 0s
*.client[0].app[0].tSend = 0s

*.client[*].app[0].connectAddress = "server[" + string(parentIndex()) +"]"
*.client[*].app[0].tOpen = 0s
*.client[*].app[0].tSend = uniform(0s,100s)

**.ppp[*].queue.packetCapacity = 1284

*.scenarioManager.script = xmldoc("../scenarios/twoFlows/100-100ms.xml")

**.tcp.initialSsthresh = 1874640

[Config TwoFlows75ms100ms]
extends = General

**.numberOfFlows = 2

*.client[0].app[0].connectAddress = "server[0]"
*.client[0].app[0].tOpen = 0s
*.client[0].app[0].tSend = 0s

*.client[*].app[0].connectAddress = "server[" + string(parentIndex()) +"]"
*.client[*].app[0].tOpen = 0s
*.client[*].app[0].tSend = uniform(0s,100s)

**.ppp[*].queue.packetCapacity = 1284

*.scenarioManager.script = xmldoc("../scenarios/twoFlows/75-100ms.xml")

**.tcp.initialSsthresh = 1874640

[Config TwoFlows25ms25ms]
extends = General

**.numberOfFlows = 2

*.client[0].app[0].connectAddress = "server[0]"
*.client[0].app[0].tOpen = 0s
*.client[0].app[0].tSend = 0s

*.client[*].app[0].connectAddress = "server[" + string(parentIndex()) +"]"
*.client[*].app[0].tOpen = uniform(0s,5s)
*.client[*].app[0].tSend = uniform(0s,5s)

**.ppp[*].queue.packetCapacity = 210

*.scenarioManager.script = xmldoc("../scenarios/twoFlows/25-25ms.xml")

**.tcp.initialSsthresh = 312500

[Config TwoFlows25ms100ms]
extends = General

**.numberOfFlows = 2

*.client[0].app[0].connectAddress = "server[0]"
*.client[0].app[0].tOpen = 0s
*.client[0].app[0].tSend = 0s

*.client[*].app[0].connectAddress = "server[" + string(parentIndex()) +"]"
*.client[*].app[0].tOpen = 0s
*.client[*].app[0].tSend = uniform(20s,25s)

**.router1.ppp[*].queue.packetCapacity = 850

*.scenarioManager.script = xmldoc("../scenarios/twoFlows/25-100ms.xml")

**.tcp.initialSsthresh = 1850000

[Config TwoFlows1ms1ms]
extends = General

**.numberOfFlows = 2

*.client[0].app[0].connectAddress = "server[0]"
*.client[0].app[0].tOpen = 0s
*.client[0].app[0].tSend = 0s

*.client[*].app[0].connectAddress = "server[" + string(parentIndex()) +"]"
*.client[*].app[0].tOpen = 0s
*.client[*].app[0].tSend = uniform(0s,100s)

**.ppp[*].queue.packetCapacity = 12

*.scenarioManager.script = xmldoc("../scenarios/twoFlows/1-1ms.xml")

**.tcp.initialSsthresh = 17520

[Config TwoFlows50ms50ms]
extends = General

**.numberOfFlows = 2

*.client[0].app[0].connectAddress = "server[0]"
*.client[0].app[0].tOpen = 0s
*.client[0].app[0].tSend = 0s

*.client[*].app[0].connectAddress = "server[" + string(parentIndex()) +"]"
*.client[*].app[0].tOpen = 0s
*.client[*].app[0].tSend = uniform(0s,100s)

**.ppp[*].queue.packetCapacity = 642

*.scenarioManager.script = xmldoc("../scenarios/twoFlows/50-50ms.xml")

**.tcp.initialSsthresh = 937320

[Config TwoFlows75ms75ms]
extends = General

**.numberOfFlows = 2

*.client[0].app[0].connectAddress = "server[0]"
*.client[0].app[0].tOpen = 0s
*.client[0].app[0].tSend = 0s

*.client[*].app[0].connectAddress = "server[" + string(parentIndex()) +"]"
*.client[*].app[0].tOpen = 0s
*.client[*].app[0].tSend = uniform(0s,100s)

**.ppp[*].queue.packetCapacity = 963

*.scenarioManager.script = xmldoc("../scenarios/twoFlows/75-75ms.xml")

**.tcp.initialSsthresh = 1405980

[Config TwoFlows1ms50ms]
extends = General

**.numberOfFlows = 2

*.client[0].app[0].connectAddress = "server[0]"
*.client[0].app[0].tOpen = 0s
*.client[0].app[0].tSend = 0s

*.client[*].app[0].connectAddress = "server[" + string(parentIndex()) +"]"
*.client[*].app[0].tOpen = 0s
*.client[*].app[0].tSend = uniform(0s,100s)

**.ppp[*].queue.packetCapacity = 642

*.scenarioManager.script = xmldoc("../scenarios/twoFlows/1-50ms.xml")

**.tcp.initialSsthresh = 937320

[Config TwoFlows25ms75ms]
extends = General

**.numberOfFlows = 2

*.client[0].app[0].connectAddress = "server[0]"
*.client[0].app[0].tOpen = 0s
*.client[0].app[0].tSend = 0s

*.client[*].app[0].connectAddress = "server[" + string(parentIndex()) +"]"
*.client[*].app[0].tOpen = 0s
*.client[1].app[0].tSend = 10s

**.ppp[*].queue.packetCapacity = 420

*.scenarioManager.script = xmldoc("../scenarios/twoFlows/25-75ms.xml")

**.tcp.initialSsthresh = 625000

[Config TwoFlows5ms5ms]
extends = General

**.numberOfFlows = 2

*.client[0].app[0].connectAddress = "server[0]"
*.client[0].app[0].tOpen = 0s
*.client[0].app[0].tSend = 0s

*.client[*].app[0].connectAddress = "server[" + string(parentIndex()) +"]"
*.client[*].app[0].tOpen = 0s
*.client[*].app[0].tSend = uniform(0s,100s)

**.ppp[*].queue.packetCapacity = 64

*.scenarioManager.script = xmldoc("../scenarios/twoFlows/5-5ms.xml")

**.tcp.initialSsthresh = 93440

[Config TwoFlows1ms100ms]
extends = General

**.numberOfFlows = 2

*.client[0].app[0].connectAddress = "server[0]"
*.client[0].app[0].tOpen = 0s
*.client[0].app[0].tSend = 0s

*.client[*].app[0].connectAddress = "server[" + string(parentIndex()) +"]"
*.client[*].app[0].tOpen = 0s
*.client[*].app[0].tSend = uniform(0s,100s)

**.ppp[*].queue.packetCapacity = 1284

*.scenarioManager.script = xmldoc("../scenarios/twoFlows/1-100ms.xml")

**.tcp.initialSsthresh = 1874640

[Config TwoFlows10ms10ms]
extends = General

**.numberOfFlows = 2

*.client[0].app[0].connectAddress = "server[0]"
*.client[0].app[0].tOpen = 0s
*.client[0].app[0].tSend = 0s

*.client[*].app[0].connectAddress = "server[" + string(parentIndex()) +"]"
*.client[*].app[0].tOpen = 0s
*.client[*].app[0].tSend = uniform(0s,100s)

**.ppp[*].queue.packetCapacity = 128

*.scenarioManager.script = xmldoc("../scenarios/twoFlows/10-10ms.xml")

**.tcp.initialSsthresh = 186880

[Config TwoFlows25ms50ms]
extends = General

**.numberOfFlows = 2

*.client[0].app[0].connectAddress = "server[0]"
*.client[0].app[0].tOpen = 0s
*.client[0].app[0].tSend = 0s

*.client[*].app[0].connectAddress = "server[" + string(parentIndex()) +"]"
*.client[*].app[0].tOpen = 0s
*.client[*].app[0].tSend = uniform(0s,100s)

**.ppp[*].queue.packetCapacity = 642

*.scenarioManager.script = xmldoc("../scenarios/twoFlows/25-50ms.xml")

**.tcp.initialSsthresh = 937320

[Config TwoFlows1ms25ms]
extends = General

**.numberOfFlows = 2

*.client[0].app[0].connectAddress = "server[0]"
*.client[0].app[0].tOpen = 0s
*.client[0].app[0].tSend = 0s

*.client[*].app[0].connectAddress = "server[" + string(parentIndex()) +"]"
*.client[*].app[0].tOpen = 0s
*.client[*].app[0].tSend = uniform(0s,100s)

**.ppp[*].queue.packetCapacity = 321

*.scenarioManager.script = xmldoc("../scenarios/twoFlows/1-25ms.xml")

**.tcp.initialSsthresh = 468660

[Config TwoFlows50ms100ms]
extends = General

**.numberOfFlows = 2

*.client[0].app[0].connectAddress = "server[0]"
*.client[0].app[0].tOpen = 0s
*.client[0].app[0].tSend = 0s

*.client[*].app[0].connectAddress = "server[" + string(parentIndex()) +"]"
*.client[*].app[0].tOpen = 0s
*.client[*].app[0].tSend = uniform(0s,100s)

**.ppp[*].queue.packetCapacity = 1284

*.scenarioManager.script = xmldoc("../scenarios/twoFlows/50-100ms.xml")

**.tcp.initialSsthresh = 1874640

[Config TenFlows50ms50ms50ms50ms50ms50ms50ms50ms50ms50ms]
extends = General

**.numberOfFlows = 10

*.client[0].app[0].connectAddress = "server[0]"
*.client[0].app[0].tOpen = 0s
*.client[0].app[0].tSend = 0s

*.client[*].app[0].connectAddress = "server[" + string(parentIndex()) +"]"
*.client[*].app[0].tOpen = 0s
*.client[*].app[0].tSend = uniform(0s,100s)

**.ppp[*].queue.packetCapacity = 642

*.scenarioManager.script = xmldoc("../scenarios/tenFlows/50-50-50-50-50-50-50-50-50-50ms.xml")

**.tcp.initialSsthresh = 937320

[Config TenFlows1ms1ms1ms1ms1ms25ms25ms75ms75ms100ms]
extends = General

**.numberOfFlows = 10

*.client[0].app[0].connectAddress = "server[0]"
*.client[0].app[0].tOpen = 0s
*.client[0].app[0].tSend = 0s

*.client[*].app[0].connectAddress = "server[" + string(parentIndex()) +"]"
*.client[*].app[0].tOpen = 0s
*.client[*].app[0].tSend = uniform(0s,100s)

**.ppp[*].queue.packetCapacity = 1284

*.scenarioManager.script = xmldoc("../scenarios/tenFlows/1-1-1-1-1-25-25-75-75-100ms.xml")

**.tcp.initialSsthresh = 1874640

[Config TenFlows1ms1ms10ms10ms25ms100ms100ms100ms100ms100ms]
extends = General

**.numberOfFlows = 10

*.client[0].app[0].connectAddress = "server[0]"
*.client[0].app[0].tOpen = 0s
*.client[0].app[0].tSend = 0s

*.client[*].app[0].connectAddress = "server[" + string(parentIndex()) +"]"
*.client[*].app[0].tOpen = 0s
*.client[*].app[0].tSend = uniform(0s,100s)

**.ppp[*].queue.packetCapacity = 1284

*.scenarioManager.script = xmldoc("../scenarios/tenFlows/1-1-10-10-25-100-100-100-100-100ms.xml")

**.tcp.initialSsthresh = 1874640

[Config TenFlows1ms1ms25ms25ms50ms50ms75ms75ms100ms100ms]
extends = General

**.numberOfFlows = 10

*.client[0].app[0].connectAddress = "server[0]"
*.client[0].app[0].tOpen = 0s
*.client[0].app[0].tSend = 0s

*.client[*].app[0].connectAddress = "server[" + string(parentIndex()) +"]"
*.client[*].app[0].tOpen = 0s
*.client[*].app[0].tSend = uniform(0s,100s)

**.ppp[*].queue.packetCapacity = 1284

*.scenarioManager.script = xmldoc("../scenarios/tenFlows/1-1-25-25-50-50-75-75-100-100ms.xml")

**.tcp.initialSsthresh = 1874640

[Config TenFlows1ms1ms50ms50ms50ms50ms75ms75ms100ms100ms]
extends = General

**.numberOfFlows = 10

*.client[0].app[0].connectAddress = "server[0]"
*.client[0].app[0].tOpen = 0s
*.client[0].app[0].tSend = 0s

*.client[*].app[0].connectAddress = "server[" + string(parentIndex()) +"]"
*.client[*].app[0].tOpen = 0s
*.client[*].app[0].tSend = uniform(0s,100s)

**.ppp[*].queue.packetCapacity = 1284

*.scenarioManager.script = xmldoc("../scenarios/tenFlows/1-1-50-50-50-50-75-75-100-100ms.xml")

**.tcp.initialSsthresh = 1874640

[Config TwentyfiveFlows5ms9ms13ms17ms21ms25ms29ms33ms37ms41ms45ms49ms53ms57ms61ms65ms69ms73ms77ms81ms85ms89ms93ms97ms100ms]
extends = General

**.numberOfFlows = 25

*.client[0].app[0].connectAddress = "server[0]"
*.client[0].app[0].tOpen = 0s
*.client[0].app[0].tSend = 0s

*.client[*].app[0].connectAddress = "server[" + string(parentIndex()) +"]"
*.client[*].app[0].tOpen = 0s
*.client[*].app[0].tSend = uniform(0s,100s)

**.ppp[*].queue.packetCapacity = 1284

*.scenarioManager.script = xmldoc("../scenarios/twentyfiveFlows/5-9-13-17-21-25-29-33-37-41-45-49-53-57-61-65-69-73-77-81-85-89-93-97-100ms.xml")

**.tcp.initialSsthresh = 1874640

[Config TwentyfiveFlows1ms1ms1ms1ms1ms1ms1ms1ms1ms1ms1ms1ms1ms5ms5ms5ms5ms5ms5ms5ms10ms10ms25ms25ms25ms]
extends = General

**.numberOfFlows = 25

*.client[0].app[0].connectAddress = "server[0]"
*.client[0].app[0].tOpen = 0s
*.client[0].app[0].tSend = 0s

*.client[*].app[0].connectAddress = "server[" + string(parentIndex()) +"]"
*.client[*].app[0].tOpen = 0s
*.client[*].app[0].tSend = uniform(0s,100s)

**.ppp[*].queue.packetCapacity = 321

*.scenarioManager.script = xmldoc("../scenarios/twentyfiveFlows/1-1-1-1-1-1-1-1-1-1-1-1-1-5-5-5-5-5-5-5-10-10-25-25-25ms.xml")

**.tcp.initialSsthresh = 468660

[Config TwentyfiveFlows1ms5ms10ms25ms25ms25ms25ms50ms50ms50ms50ms50ms50ms75ms75ms75ms75ms75ms75ms75ms75ms75ms100ms100ms100ms]
extends = General

**.numberOfFlows = 25

*.client[0].app[0].connectAddress = "server[0]"
*.client[0].app[0].tOpen = 0s
*.client[0].app[0].tSend = 0s

*.client[*].app[0].connectAddress = "server[" + string(parentIndex()) +"]"
*.client[*].app[0].tOpen = 0s
*.client[*].app[0].tSend = uniform(0s,100s)

**.ppp[*].queue.packetCapacity = 1284

*.scenarioManager.script = xmldoc("../scenarios/twentyfiveFlows/1-5-10-25-25-25-25-50-50-50-50-50-50-75-75-75-75-75-75-75-75-75-100-100-100ms.xml")

**.tcp.initialSsthresh = 1874640

[Config OneFlow1msTenMsPathChange]
extends = General

**.numberOfFlows = 1

*.client[0].app[0].connectAddress = "server[0]"
*.client[0].app[0].tOpen = 0s
*.client[0].app[0].tSend = 0s

*.client[*].app[0].connectAddress = "server[" + string(parentIndex()) +"]"
*.client[*].app[0].tOpen = 0s
*.client[*].app[0].tSend = uniform(0s,100s)

**.ppp[*].queue.packetCapacity = 14

*.scenarioManager.script = xmldoc("../scenarios/tenMsPathChange/oneFlows/1ms.xml")

**.tcp.initialSsthresh = 20440

[Config OneFlow25msTenMsPathChange]
extends = General

**.numberOfFlows = 1

*.client[0].app[0].connectAddress = "server[0]"
*.client[0].app[0].tOpen = 0s
*.client[0].app[0].tSend = 0s

*.client[*].app[0].connectAddress = "server[" + string(parentIndex()) +"]"
*.client[*].app[0].tOpen = 0s
*.client[*].app[0].tSend = uniform(0s,100s)

**.ppp[*].queue.packetCapacity = 353

*.scenarioManager.script = xmldoc("../scenarios/tenMsPathChange/oneFlows/25ms.xml")

**.tcp.initialSsthresh = 515380

[Config OneFlow75msTenMsPathChange]
extends = General

**.numberOfFlows = 1

*.client[0].app[0].connectAddress = "server[0]"
*.client[0].app[0].tOpen = 0s
*.client[0].app[0].tSend = 0s

*.client[*].app[0].connectAddress = "server[" + string(parentIndex()) +"]"
*.client[*].app[0].tOpen = 0s
*.client[*].app[0].tSend = uniform(0s,100s)

**.ppp[*].queue.packetCapacity = 1059

*.scenarioManager.script = xmldoc("../scenarios/tenMsPathChange/oneFlows/75ms.xml")

**.tcp.initialSsthresh = 1546140

[Config OneFlow100msTenMsPathChange]
extends = General

**.numberOfFlows = 1

*.client[0].app[0].connectAddress = "server[0]"
*.client[0].app[0].tOpen = 0s
*.client[0].app[0].tSend = 0s

*.client[*].app[0].connectAddress = "server[" + string(parentIndex()) +"]"
*.client[*].app[0].tOpen = 0s
*.client[*].app[0].tSend = uniform(0s,100s)

**.ppp[*].queue.packetCapacity = 1412

*.scenarioManager.script = xmldoc("../scenarios/tenMsPathChange/oneFlows/100ms.xml")

**.tcp.initialSsthresh = 2061520

[Config OneFlow50msTenMsPathChange]
extends = General

**.numberOfFlows = 1

*.client[0].app[0].connectAddress = "server[0]"
*.client[0].app[0].tOpen = 0s
*.client[0].app[0].tSend = 0s

*.client[*].app[0].connectAddress = "server[" + string(parentIndex()) +"]"
*.client[*].app[0].tOpen = 0s
*.client[*].app[0].tSend = uniform(0s,100s)

**.ppp[*].queue.packetCapacity = 706

*.scenarioManager.script = xmldoc("../scenarios/tenMsPathChange/oneFlows/50ms.xml")

**.tcp.initialSsthresh = 1030760

[Config OneFlow25msMinusTenMsPathChange]
extends = General

**.numberOfFlows = 1

*.client[0].app[0].connectAddress = "server[0]"
*.client[0].app[0].tOpen = 0s
*.client[0].app[0].tSend = 0s

*.client[*].app[0].connectAddress = "server[" + string(parentIndex()) +"]"
*.client[*].app[0].tOpen = 0s
*.client[*].app[0].tSend = uniform(0s,100s)

**.ppp[*].queue.packetCapacity = 353

*.scenarioManager.script = xmldoc("../scenarios/minusTenMsPathChange/oneFlows/25ms.xml")

**.tcp.initialSsthresh = 515380

[Config OneFlow75msMinusTenMsPathChange]
extends = General

**.numberOfFlows = 1

*.client[0].app[0].connectAddress = "server[0]"
*.client[0].app[0].tOpen = 0s
*.client[0].app[0].tSend = 0s

*.client[*].app[0].connectAddress = "server[" + string(parentIndex()) +"]"
*.client[*].app[0].tOpen = 0s
*.client[*].app[0].tSend = uniform(0s,100s)

**.ppp[*].queue.packetCapacity = 1059

*.scenarioManager.script = xmldoc("../scenarios/minusTenMsPathChange/oneFlows/75ms.xml")

**.tcp.initialSsthresh = 1546140

[Config OneFlow100msMinusTenMsPathChange]
extends = General

**.numberOfFlows = 1

*.client[0].app[0].connectAddress = "server[0]"
*.client[0].app[0].tOpen = 0s
*.client[0].app[0].tSend = 0s

*.client[*].app[0].connectAddress = "server[" + string(parentIndex()) +"]"
*.client[*].app[0].tOpen = 0s
*.client[*].app[0].tSend = uniform(0s,100s)

**.ppp[*].queue.packetCapacity = 1412

*.scenarioManager.script = xmldoc("../scenarios/minusTenMsPathChange/oneFlows/100ms.xml")

**.tcp.initialSsthresh = 2061520

[Config OneFlow50msMinusTenMsPathChange]
extends = General

**.numberOfFlows = 1

*.client[0].app[0].connectAddress = "server[0]"
*.client[0].app[0].tOpen = 0s
*.client[0].app[0].tSend = 0s

*.client[*].app[0].connectAddress = "server[" + string(parentIndex()) +"]"
*.client[*].app[0].tOpen = 0s
*.client[*].app[0].tSend = uniform(0s,100s)

**.ppp[*].queue.packetCapacity = 706

*.scenarioManager.script = xmldoc("../scenarios/minusTenMsPathChange/oneFlows/50ms.xml")

**.tcp.initialSsthresh = 1030760

[Config OneFlow11msMinusTenMsPathChange]
extends = General

**.numberOfFlows = 1

*.client[0].app[0].connectAddress = "server[0]"
*.client[0].app[0].tOpen = 0s
*.client[0].app[0].tSend = 0s

*.client[*].app[0].connectAddress = "server[" + string(parentIndex()) +"]"
*.client[*].app[0].tOpen = 0s
*.client[*].app[0].tSend = uniform(0s,100s)

**.ppp[*].queue.packetCapacity = 155

*.scenarioManager.script = xmldoc("../scenarios/minusTenMsPathChange/oneFlows/11ms.xml")

**.tcp.initialSsthresh = 226300

[Config OneFlow1msTwentyfiveMsPathChange]
extends = General

**.numberOfFlows = 1

*.client[0].app[0].connectAddress = "server[0]"
*.client[0].app[0].tOpen = 0s
*.client[0].app[0].tSend = 0s

*.client[*].app[0].connectAddress = "server[" + string(parentIndex()) +"]"
*.client[*].app[0].tOpen = 0s
*.client[*].app[0].tSend = uniform(0s,100s)

**.ppp[*].queue.packetCapacity = 14

*.scenarioManager.script = xmldoc("../scenarios/twentyfiveMsPathChange/oneFlows/1ms.xml")

**.tcp.initialSsthresh = 20440

[Config OneFlow25msTwentyfiveMsPathChange]
extends = General

**.numberOfFlows = 1

*.client[0].app[0].connectAddress = "server[0]"
*.client[0].app[0].tOpen = 0s
*.client[0].app[0].tSend = 0s

*.client[*].app[0].connectAddress = "server[" + string(parentIndex()) +"]"
*.client[*].app[0].tOpen = 0s
*.client[*].app[0].tSend = uniform(0s,100s)

**.ppp[*].queue.packetCapacity = 353

*.scenarioManager.script = xmldoc("../scenarios/twentyfiveMsPathChange/oneFlows/25ms.xml")

**.tcp.initialSsthresh = 515380

[Config OneFlow75msTwentyfiveMsPathChange]
extends = General

**.numberOfFlows = 1

*.client[0].app[0].connectAddress = "server[0]"
*.client[0].app[0].tOpen = 0s
*.client[0].app[0].tSend = 0s

*.client[*].app[0].connectAddress = "server[" + string(parentIndex()) +"]"
*.client[*].app[0].tOpen = 0s
*.client[*].app[0].tSend = uniform(0s,100s)

**.ppp[*].queue.packetCapacity = 1059

*.scenarioManager.script = xmldoc("../scenarios/twentyfiveMsPathChange/oneFlows/75ms.xml")

**.tcp.initialSsthresh = 1546140

[Config OneFlow100msTwentyfiveMsPathChange]
extends = General

**.numberOfFlows = 1

*.client[0].app[0].connectAddress = "server[0]"
*.client[0].app[0].tOpen = 0s
*.client[0].app[0].tSend = 0s

*.client[*].app[0].connectAddress = "server[" + string(parentIndex()) +"]"
*.client[*].app[0].tOpen = 0s
*.client[*].app[0].tSend = uniform(0s,100s)

**.ppp[*].queue.packetCapacity = 1412

*.scenarioManager.script = xmldoc("../scenarios/twentyfiveMsPathChange/oneFlows/100ms.xml")

**.tcp.initialSsthresh = 2061520

[Config OneFlow50msTwentyfiveMsPathChange]
extends = General

**.numberOfFlows = 1

*.client[0].app[0].connectAddress = "server[0]"
*.client[0].app[0].tOpen = 0s
*.client[0].app[0].tSend = 0s

*.client[*].app[0].connectAddress = "server[" + string(parentIndex()) +"]"
*.client[*].app[0].tOpen = 0s
*.client[*].app[0].tSend = uniform(0s,100s)

**.ppp[*].queue.packetCapacity = 706

*.scenarioManager.script = xmldoc("../scenarios/twentyfiveMsPathChange/oneFlows/50ms.xml")

**.tcp.initialSsthresh = 1030760

[Config OneFlow75msMinusTwentyfiveMsPathChange]
extends = General

**.numberOfFlows = 1

*.client[0].app[0].connectAddress = "server[0]"
*.client[0].app[0].tOpen = 0s
*.client[0].app[0].tSend = 0s

*.client[*].app[0].connectAddress = "server[" + string(parentIndex()) +"]"
*.client[*].app[0].tOpen = 0s
*.client[*].app[0].tSend = uniform(0s,100s)

**.ppp[*].queue.packetCapacity = 1059

*.scenarioManager.script = xmldoc("../scenarios/minusTwentyfiveMsPathChange/oneFlows/75ms.xml")

**.tcp.initialSsthresh = 1546140

[Config OneFlow36msMinusTwentyfiveMsPathChange]
extends = General

**.numberOfFlows = 1

*.client[0].app[0].connectAddress = "server[0]"
*.client[0].app[0].tOpen = 0s
*.client[0].app[0].tSend = 0s

*.client[*].app[0].connectAddress = "server[" + string(parentIndex()) +"]"
*.client[*].app[0].tOpen = 0s
*.client[*].app[0].tSend = uniform(0s,100s)

**.ppp[*].queue.packetCapacity = 508

*.scenarioManager.script = xmldoc("../scenarios/minusTwentyfiveMsPathChange/oneFlows/36ms.xml")

**.tcp.initialSsthresh = 741680

[Config OneFlow100msMinusTwentyfiveMsPathChange]
extends = General

**.numberOfFlows = 1

*.client[0].app[0].connectAddress = "server[0]"
*.client[0].app[0].tOpen = 0s
*.client[0].app[0].tSend = 0s

*.client[*].app[0].connectAddress = "server[" + string(parentIndex()) +"]"
*.client[*].app[0].tOpen = 0s
*.client[*].app[0].tSend = uniform(0s,100s)

**.ppp[*].queue.packetCapacity = 1412

*.scenarioManager.script = xmldoc("../scenarios/minusTwentyfiveMsPathChange/oneFlows/100ms.xml")

**.tcp.initialSsthresh = 2061520

[Config OneFlow50msMinusTwentyfiveMsPathChange]
extends = General

**.numberOfFlows = 1

*.client[0].app[0].connectAddress = "server[0]"
*.client[0].app[0].tOpen = 0s
*.client[0].app[0].tSend = 0s

*.client[*].app[0].connectAddress = "server[" + string(parentIndex()) +"]"
*.client[*].app[0].tOpen = 0s
*.client[*].app[0].tSend = uniform(0s,100s)

**.ppp[*].queue.packetCapacity = 706

*.scenarioManager.script = xmldoc("../scenarios/minusTwentyfiveMsPathChange/oneFlows/50ms.xml")

**.tcp.initialSsthresh = 1030760

[Config TwoFlows1ms75msTenMsPathChange]
extends = General

**.numberOfFlows = 2

*.client[0].app[0].connectAddress = "server[0]"
*.client[0].app[0].tOpen = 0s
*.client[0].app[0].tSend = 0s

*.client[*].app[0].connectAddress = "server[" + string(parentIndex()) +"]"
*.client[*].app[0].tOpen = 0s
*.client[*].app[0].tSend = uniform(0s,100s)

**.ppp[*].queue.packetCapacity = 1059

*.scenarioManager.script = xmldoc("../scenarios/tenMsPathChange/twoFlows/1-75ms.xml")

**.tcp.initialSsthresh = 1546140

[Config TwoFlows50ms75msTenMsPathChange]
extends = General

**.numberOfFlows = 2

*.client[0].app[0].connectAddress = "server[0]"
*.client[0].app[0].tOpen = 0s
*.client[0].app[0].tSend = 0s

*.client[*].app[0].connectAddress = "server[" + string(parentIndex()) +"]"
*.client[*].app[0].tOpen = 0s
*.client[*].app[0].tSend = uniform(0s,100s)

**.ppp[*].queue.packetCapacity = 1059

*.scenarioManager.script = xmldoc("../scenarios/tenMsPathChange/twoFlows/50-75ms.xml")

**.tcp.initialSsthresh = 1546140

[Config TwoFlows100ms100msTenMsPathChange]
extends = General

**.numberOfFlows = 2

*.client[0].app[0].connectAddress = "server[0]"
*.client[0].app[0].tOpen = 0s
*.client[0].app[0].tSend = 0s

*.client[*].app[0].connectAddress = "server[" + string(parentIndex()) +"]"
*.client[*].app[0].tOpen = 0s
*.client[*].app[0].tSend = uniform(0s,100s)

**.ppp[*].queue.packetCapacity = 1412

*.scenarioManager.script = xmldoc("../scenarios/tenMsPathChange/twoFlows/100-100ms.xml")

**.tcp.initialSsthresh = 2061520

[Config TwoFlows75ms100msTenMsPathChange]
extends = General

**.numberOfFlows = 2

*.client[0].app[0].connectAddress = "server[0]"
*.client[0].app[0].tOpen = 0s
*.client[0].app[0].tSend = 0s

*.client[*].app[0].connectAddress = "server[" + string(parentIndex()) +"]"
*.client[*].app[0].tOpen = 0s
*.client[*].app[0].tSend = uniform(0s,100s)

**.ppp[*].queue.packetCapacity = 1412

*.scenarioManager.script = xmldoc("../scenarios/tenMsPathChange/twoFlows/75-100ms.xml")

**.tcp.initialSsthresh = 2061520

[Config TwoFlows25ms25msTenMsPathChange]
extends = General

**.numberOfFlows = 2

*.client[0].app[0].connectAddress = "server[0]"
*.client[0].app[0].tOpen = 0s
*.client[0].app[0].tSend = 0s

*.client[*].app[0].connectAddress = "server[" + string(parentIndex()) +"]"
*.client[*].app[0].tOpen = 0s
*.client[*].app[0].tSend = uniform(0s,100s)

**.ppp[*].queue.packetCapacity = 353

*.scenarioManager.script = xmldoc("../scenarios/tenMsPathChange/twoFlows/25-25ms.xml")

**.tcp.initialSsthresh = 515380

[Config TwoFlows25ms100msTenMsPathChange]
extends = General

**.numberOfFlows = 2

*.client[0].app[0].connectAddress = "server[0]"
*.client[0].app[0].tOpen = 0s
*.client[0].app[0].tSend = 0s

*.client[*].app[0].connectAddress = "server[" + string(parentIndex()) +"]"
*.client[*].app[0].tOpen = 0s
*.client[*].app[0].tSend = uniform(0s,100s)

**.ppp[*].queue.packetCapacity = 1412

*.scenarioManager.script = xmldoc("../scenarios/tenMsPathChange/twoFlows/25-100ms.xml")

**.tcp.initialSsthresh = 2061520
