[General]

network = singledumbbell
sim-time-limit = 300s
record-eventlog=false
cmdenv-express-mode = true
cmdenv-redirect-output = false
cmdenv-output-file = dctcpLog.txt
**.client*.tcp.conn-8.cmdenv-log-level = detail
cmdenv-log-prefix = %t | %m |


cmdenv-event-banners = false
**.cmdenv-log-level = off

**.**.tcp.conn-*.cwnd:vector.vector-recording = true
**.**.tcp.conn-*.U:vector.vector-recording = true
**.**.tcp.conn-*.rtt:vector.vector-recording = true
**.**.tcp.conn-*.srtt:vector.vector-recording = true
**.**.tcp.conn-*.lossRecovery:vector.vector-recording = true
**.**.queue.queueLength:vector.vector-recording = true
**.**.goodput:vector.vector-recording = true
**.**.throughput:vector.vector-recording = true
**.**.bandwidth:vector.vector-recording = true
**.**.mbytesInFlight:vector.vector-recording = true
**.scalar-recording=false
**.vector-recording=false
**.bin-recording=false

**.server[*].app[*].*.thrMeasurementInterval = 1s
**.tcp.typename = "Orbtcp"
**.tcp.tcpAlgorithmClass = "OrbtcpFlavour"
**.tcp.advertisedWindow = 200000000
**.tcp.windowScalingSupport = true
**.tcp.windowScalingFactor = -1
**.tcp.increasedIWEnabled = true
**.tcp.delayedAcksEnabled = false
**.tcp.timestampSupport = true
**.tcp.ecnWillingness = false
**.tcp.nagleEnabled = true
**.tcp.stopOperationTimeout = 4000s
**.tcp.mss = 1448
**.tcp.sackSupport = true
**.client[*].numApps = 1
**.client[*].app[*].typename  = "TcpGoodputSessionApp"
*.client[*].app[0].tClose = -1s
*.client[*].app[0].sendBytes = 2GB
*.client[*].app[0].dataTransferMode = "bytecount"
*.client[*].app[0].statistic-recording = true

**.server[*].numApps = 1
**.server[*].app[*].typename  = "TcpSinkApp"
**.server[*].app[*].serverThreadModuleType = "tcpgoodputapplications.applications.tcpapp.TcpGoodputSinkAppThread"

**.ppp[*].queue.typename = "IntQueue"

**.additiveIncreasePercent = 0.05
**.eta = 0.95

**.alpha = 0.01
**.fixedAvgRTTVal = 0

**.tcp.initialSsthresh = 579200

[Config OrbtcpLossRun22]
extends = General 

**.numberOfFlows = 1 

*.client[0].app[0].connectAddress = "server[0]"
*.client[0].app[0].tOpen = 0s
*.client[0].app[0].tSend = 0s

**.ppp[*].queue.packetCapacity = 340

*.scenarioManager.script = xmldoc("../../scenarios/experiment2/lossRun22.xml")

[Config OrbtcpLossRun36]
extends = General 

**.numberOfFlows = 1 

*.client[0].app[0].connectAddress = "server[0]"
*.client[0].app[0].tOpen = 0s
*.client[0].app[0].tSend = 0s

**.ppp[*].queue.packetCapacity = 340

*.scenarioManager.script = xmldoc("../../scenarios/experiment2/lossRun36.xml")

[Config OrbtcpLossRun1]
extends = General 

**.numberOfFlows = 1 

*.client[0].app[0].connectAddress = "server[0]"
*.client[0].app[0].tOpen = 0s
*.client[0].app[0].tSend = 0s

**.ppp[*].queue.packetCapacity = 340

*.scenarioManager.script = xmldoc("../../scenarios/experiment2/lossRun1.xml")

[Config OrbtcpLossRun37]
extends = General 

**.numberOfFlows = 1 

*.client[0].app[0].connectAddress = "server[0]"
*.client[0].app[0].tOpen = 0s
*.client[0].app[0].tSend = 0s

**.ppp[*].queue.packetCapacity = 340

*.scenarioManager.script = xmldoc("../../scenarios/experiment2/lossRun37.xml")

[Config OrbtcpLossRun23]
extends = General 

**.numberOfFlows = 1 

*.client[0].app[0].connectAddress = "server[0]"
*.client[0].app[0].tOpen = 0s
*.client[0].app[0].tSend = 0s

**.ppp[*].queue.packetCapacity = 340

*.scenarioManager.script = xmldoc("../../scenarios/experiment2/lossRun23.xml")

[Config OrbtcpLossRun35]
extends = General 

**.numberOfFlows = 1 

*.client[0].app[0].connectAddress = "server[0]"
*.client[0].app[0].tOpen = 0s
*.client[0].app[0].tSend = 0s

**.ppp[*].queue.packetCapacity = 340

*.scenarioManager.script = xmldoc("../../scenarios/experiment2/lossRun35.xml")

[Config OrbtcpLossRun21]
extends = General 

**.numberOfFlows = 1 

*.client[0].app[0].connectAddress = "server[0]"
*.client[0].app[0].tOpen = 0s
*.client[0].app[0].tSend = 0s

**.ppp[*].queue.packetCapacity = 340

*.scenarioManager.script = xmldoc("../../scenarios/experiment2/lossRun21.xml")

[Config OrbtcpLossRun2]
extends = General 

**.numberOfFlows = 1 

*.client[0].app[0].connectAddress = "server[0]"
*.client[0].app[0].tOpen = 0s
*.client[0].app[0].tSend = 0s

**.ppp[*].queue.packetCapacity = 340

*.scenarioManager.script = xmldoc("../../scenarios/experiment2/lossRun2.xml")

[Config OrbtcpLossRun3]
extends = General 

**.numberOfFlows = 1 

*.client[0].app[0].connectAddress = "server[0]"
*.client[0].app[0].tOpen = 0s
*.client[0].app[0].tSend = 0s

**.ppp[*].queue.packetCapacity = 340

*.scenarioManager.script = xmldoc("../../scenarios/experiment2/lossRun3.xml")

[Config OrbtcpLossRun20]
extends = General 

**.numberOfFlows = 1 

*.client[0].app[0].connectAddress = "server[0]"
*.client[0].app[0].tOpen = 0s
*.client[0].app[0].tSend = 0s

**.ppp[*].queue.packetCapacity = 340

*.scenarioManager.script = xmldoc("../../scenarios/experiment2/lossRun20.xml")

[Config OrbtcpLossRun34]
extends = General 

**.numberOfFlows = 1 

*.client[0].app[0].connectAddress = "server[0]"
*.client[0].app[0].tOpen = 0s
*.client[0].app[0].tSend = 0s

**.ppp[*].queue.packetCapacity = 340

*.scenarioManager.script = xmldoc("../../scenarios/experiment2/lossRun34.xml")

[Config OrbtcpLossRun30]
extends = General 

**.numberOfFlows = 1 

*.client[0].app[0].connectAddress = "server[0]"
*.client[0].app[0].tOpen = 0s
*.client[0].app[0].tSend = 0s

**.ppp[*].queue.packetCapacity = 340

*.scenarioManager.script = xmldoc("../../scenarios/experiment2/lossRun30.xml")

[Config OrbtcpLossRun24]
extends = General 

**.numberOfFlows = 1 

*.client[0].app[0].connectAddress = "server[0]"
*.client[0].app[0].tOpen = 0s
*.client[0].app[0].tSend = 0s

**.ppp[*].queue.packetCapacity = 340

*.scenarioManager.script = xmldoc("../../scenarios/experiment2/lossRun24.xml")

[Config OrbtcpLossRun18]
extends = General 

**.numberOfFlows = 1 

*.client[0].app[0].connectAddress = "server[0]"
*.client[0].app[0].tOpen = 0s
*.client[0].app[0].tSend = 0s

**.ppp[*].queue.packetCapacity = 340

*.scenarioManager.script = xmldoc("../../scenarios/experiment2/lossRun18.xml")

[Config OrbtcpLossRun7]
extends = General 

**.numberOfFlows = 1 

*.client[0].app[0].connectAddress = "server[0]"
*.client[0].app[0].tOpen = 0s
*.client[0].app[0].tSend = 0s

**.ppp[*].queue.packetCapacity = 340

*.scenarioManager.script = xmldoc("../../scenarios/experiment2/lossRun7.xml")

[Config OrbtcpLossRun6]
extends = General 

**.numberOfFlows = 1 

*.client[0].app[0].connectAddress = "server[0]"
*.client[0].app[0].tOpen = 0s
*.client[0].app[0].tSend = 0s

**.ppp[*].queue.packetCapacity = 340

*.scenarioManager.script = xmldoc("../../scenarios/experiment2/lossRun6.xml")

[Config OrbtcpLossRun19]
extends = General 

**.numberOfFlows = 1 

*.client[0].app[0].connectAddress = "server[0]"
*.client[0].app[0].tOpen = 0s
*.client[0].app[0].tSend = 0s

**.ppp[*].queue.packetCapacity = 340

*.scenarioManager.script = xmldoc("../../scenarios/experiment2/lossRun19.xml")

[Config OrbtcpLossRun25]
extends = General 

**.numberOfFlows = 1 

*.client[0].app[0].connectAddress = "server[0]"
*.client[0].app[0].tOpen = 0s
*.client[0].app[0].tSend = 0s

**.ppp[*].queue.packetCapacity = 340

*.scenarioManager.script = xmldoc("../../scenarios/experiment2/lossRun25.xml")

[Config OrbtcpLossRun31]
extends = General 

**.numberOfFlows = 1 

*.client[0].app[0].connectAddress = "server[0]"
*.client[0].app[0].tOpen = 0s
*.client[0].app[0].tSend = 0s

**.ppp[*].queue.packetCapacity = 340

*.scenarioManager.script = xmldoc("../../scenarios/experiment2/lossRun31.xml")

[Config OrbtcpLossRun27]
extends = General 

**.numberOfFlows = 1 

*.client[0].app[0].connectAddress = "server[0]"
*.client[0].app[0].tOpen = 0s
*.client[0].app[0].tSend = 0s

**.ppp[*].queue.packetCapacity = 340

*.scenarioManager.script = xmldoc("../../scenarios/experiment2/lossRun27.xml")

[Config OrbtcpLossRun33]
extends = General 

**.numberOfFlows = 1 

*.client[0].app[0].connectAddress = "server[0]"
*.client[0].app[0].tOpen = 0s
*.client[0].app[0].tSend = 0s

**.ppp[*].queue.packetCapacity = 340

*.scenarioManager.script = xmldoc("../../scenarios/experiment2/lossRun33.xml")

[Config OrbtcpLossRun4]
extends = General 

**.numberOfFlows = 1 

*.client[0].app[0].connectAddress = "server[0]"
*.client[0].app[0].tOpen = 0s
*.client[0].app[0].tSend = 0s

**.ppp[*].queue.packetCapacity = 340

*.scenarioManager.script = xmldoc("../../scenarios/experiment2/lossRun4.xml")

[Config OrbtcpLossRun5]
extends = General 

**.numberOfFlows = 1 

*.client[0].app[0].connectAddress = "server[0]"
*.client[0].app[0].tOpen = 0s
*.client[0].app[0].tSend = 0s

**.ppp[*].queue.packetCapacity = 340

*.scenarioManager.script = xmldoc("../../scenarios/experiment2/lossRun5.xml")

[Config OrbtcpLossRun32]
extends = General 

**.numberOfFlows = 1 

*.client[0].app[0].connectAddress = "server[0]"
*.client[0].app[0].tOpen = 0s
*.client[0].app[0].tSend = 0s

**.ppp[*].queue.packetCapacity = 340

*.scenarioManager.script = xmldoc("../../scenarios/experiment2/lossRun32.xml")

[Config OrbtcpLossRun26]
extends = General 

**.numberOfFlows = 1 

*.client[0].app[0].connectAddress = "server[0]"
*.client[0].app[0].tOpen = 0s
*.client[0].app[0].tSend = 0s

**.ppp[*].queue.packetCapacity = 340

*.scenarioManager.script = xmldoc("../../scenarios/experiment2/lossRun26.xml")

[Config OrbtcpLossRun41]
extends = General 

**.numberOfFlows = 1 

*.client[0].app[0].connectAddress = "server[0]"
*.client[0].app[0].tOpen = 0s
*.client[0].app[0].tSend = 0s

**.ppp[*].queue.packetCapacity = 340

*.scenarioManager.script = xmldoc("../../scenarios/experiment2/lossRun41.xml")

[Config OrbtcpLossRun40]
extends = General 

**.numberOfFlows = 1 

*.client[0].app[0].connectAddress = "server[0]"
*.client[0].app[0].tOpen = 0s
*.client[0].app[0].tSend = 0s

**.ppp[*].queue.packetCapacity = 340

*.scenarioManager.script = xmldoc("../../scenarios/experiment2/lossRun40.xml")

[Config OrbtcpLossRun42]
extends = General 

**.numberOfFlows = 1 

*.client[0].app[0].connectAddress = "server[0]"
*.client[0].app[0].tOpen = 0s
*.client[0].app[0].tSend = 0s

**.ppp[*].queue.packetCapacity = 340

*.scenarioManager.script = xmldoc("../../scenarios/experiment2/lossRun42.xml")

[Config OrbtcpLossRun43]
extends = General 

**.numberOfFlows = 1 

*.client[0].app[0].connectAddress = "server[0]"
*.client[0].app[0].tOpen = 0s
*.client[0].app[0].tSend = 0s

**.ppp[*].queue.packetCapacity = 340

*.scenarioManager.script = xmldoc("../../scenarios/experiment2/lossRun43.xml")

[Config OrbtcpLossRun47]
extends = General 

**.numberOfFlows = 1 

*.client[0].app[0].connectAddress = "server[0]"
*.client[0].app[0].tOpen = 0s
*.client[0].app[0].tSend = 0s

**.ppp[*].queue.packetCapacity = 340

*.scenarioManager.script = xmldoc("../../scenarios/experiment2/lossRun47.xml")

[Config OrbtcpLossRun46]
extends = General 

**.numberOfFlows = 1 

*.client[0].app[0].connectAddress = "server[0]"
*.client[0].app[0].tOpen = 0s
*.client[0].app[0].tSend = 0s

**.ppp[*].queue.packetCapacity = 340

*.scenarioManager.script = xmldoc("../../scenarios/experiment2/lossRun46.xml")

[Config OrbtcpLossRun44]
extends = General 

**.numberOfFlows = 1 

*.client[0].app[0].connectAddress = "server[0]"
*.client[0].app[0].tOpen = 0s
*.client[0].app[0].tSend = 0s

**.ppp[*].queue.packetCapacity = 340

*.scenarioManager.script = xmldoc("../../scenarios/experiment2/lossRun44.xml")

[Config OrbtcpLossRun50]
extends = General 

**.numberOfFlows = 1 

*.client[0].app[0].connectAddress = "server[0]"
*.client[0].app[0].tOpen = 0s
*.client[0].app[0].tSend = 0s

**.ppp[*].queue.packetCapacity = 340

*.scenarioManager.script = xmldoc("../../scenarios/experiment2/lossRun50.xml")

[Config OrbtcpLossRun45]
extends = General 

**.numberOfFlows = 1 

*.client[0].app[0].connectAddress = "server[0]"
*.client[0].app[0].tOpen = 0s
*.client[0].app[0].tSend = 0s

**.ppp[*].queue.packetCapacity = 340

*.scenarioManager.script = xmldoc("../../scenarios/experiment2/lossRun45.xml")

[Config OrbtcpLossRun48]
extends = General 

**.numberOfFlows = 1 

*.client[0].app[0].connectAddress = "server[0]"
*.client[0].app[0].tOpen = 0s
*.client[0].app[0].tSend = 0s

**.ppp[*].queue.packetCapacity = 340

*.scenarioManager.script = xmldoc("../../scenarios/experiment2/lossRun48.xml")

[Config OrbtcpLossRun49]
extends = General 

**.numberOfFlows = 1 

*.client[0].app[0].connectAddress = "server[0]"
*.client[0].app[0].tOpen = 0s
*.client[0].app[0].tSend = 0s

**.ppp[*].queue.packetCapacity = 340

*.scenarioManager.script = xmldoc("../../scenarios/experiment2/lossRun49.xml")

[Config OrbtcpLossRun17]
extends = General 

**.numberOfFlows = 1 

*.client[0].app[0].connectAddress = "server[0]"
*.client[0].app[0].tOpen = 0s
*.client[0].app[0].tSend = 0s

**.ppp[*].queue.packetCapacity = 340

*.scenarioManager.script = xmldoc("../../scenarios/experiment2/lossRun17.xml")

[Config OrbtcpLossRun8]
extends = General 

**.numberOfFlows = 1 

*.client[0].app[0].connectAddress = "server[0]"
*.client[0].app[0].tOpen = 0s
*.client[0].app[0].tSend = 0s

**.ppp[*].queue.packetCapacity = 340

*.scenarioManager.script = xmldoc("../../scenarios/experiment2/lossRun8.xml")

[Config OrbtcpLossRun9]
extends = General 

**.numberOfFlows = 1 

*.client[0].app[0].connectAddress = "server[0]"
*.client[0].app[0].tOpen = 0s
*.client[0].app[0].tSend = 0s

**.ppp[*].queue.packetCapacity = 340

*.scenarioManager.script = xmldoc("../../scenarios/experiment2/lossRun9.xml")

[Config OrbtcpLossRun16]
extends = General 

**.numberOfFlows = 1 

*.client[0].app[0].connectAddress = "server[0]"
*.client[0].app[0].tOpen = 0s
*.client[0].app[0].tSend = 0s

**.ppp[*].queue.packetCapacity = 340

*.scenarioManager.script = xmldoc("../../scenarios/experiment2/lossRun16.xml")

[Config OrbtcpLossRun28]
extends = General 

**.numberOfFlows = 1 

*.client[0].app[0].connectAddress = "server[0]"
*.client[0].app[0].tOpen = 0s
*.client[0].app[0].tSend = 0s

**.ppp[*].queue.packetCapacity = 340

*.scenarioManager.script = xmldoc("../../scenarios/experiment2/lossRun28.xml")

[Config OrbtcpLossRun14]
extends = General 

**.numberOfFlows = 1 

*.client[0].app[0].connectAddress = "server[0]"
*.client[0].app[0].tOpen = 0s
*.client[0].app[0].tSend = 0s

**.ppp[*].queue.packetCapacity = 340

*.scenarioManager.script = xmldoc("../../scenarios/experiment2/lossRun14.xml")

[Config OrbtcpLossRun15]
extends = General 

**.numberOfFlows = 1 

*.client[0].app[0].connectAddress = "server[0]"
*.client[0].app[0].tOpen = 0s
*.client[0].app[0].tSend = 0s

**.ppp[*].queue.packetCapacity = 340

*.scenarioManager.script = xmldoc("../../scenarios/experiment2/lossRun15.xml")

[Config OrbtcpLossRun29]
extends = General 

**.numberOfFlows = 1 

*.client[0].app[0].connectAddress = "server[0]"
*.client[0].app[0].tOpen = 0s
*.client[0].app[0].tSend = 0s

**.ppp[*].queue.packetCapacity = 340

*.scenarioManager.script = xmldoc("../../scenarios/experiment2/lossRun29.xml")

[Config OrbtcpLossRun11]
extends = General 

**.numberOfFlows = 1 

*.client[0].app[0].connectAddress = "server[0]"
*.client[0].app[0].tOpen = 0s
*.client[0].app[0].tSend = 0s

**.ppp[*].queue.packetCapacity = 340

*.scenarioManager.script = xmldoc("../../scenarios/experiment2/lossRun11.xml")

[Config OrbtcpLossRun39]
extends = General 

**.numberOfFlows = 1 

*.client[0].app[0].connectAddress = "server[0]"
*.client[0].app[0].tOpen = 0s
*.client[0].app[0].tSend = 0s

**.ppp[*].queue.packetCapacity = 340

*.scenarioManager.script = xmldoc("../../scenarios/experiment2/lossRun39.xml")

[Config OrbtcpLossRun38]
extends = General 

**.numberOfFlows = 1 

*.client[0].app[0].connectAddress = "server[0]"
*.client[0].app[0].tOpen = 0s
*.client[0].app[0].tSend = 0s

**.ppp[*].queue.packetCapacity = 340

*.scenarioManager.script = xmldoc("../../scenarios/experiment2/lossRun38.xml")

[Config OrbtcpLossRun10]
extends = General 

**.numberOfFlows = 1 

*.client[0].app[0].connectAddress = "server[0]"
*.client[0].app[0].tOpen = 0s
*.client[0].app[0].tSend = 0s

**.ppp[*].queue.packetCapacity = 340

*.scenarioManager.script = xmldoc("../../scenarios/experiment2/lossRun10.xml")

[Config OrbtcpLossRun12]
extends = General 

**.numberOfFlows = 1 

*.client[0].app[0].connectAddress = "server[0]"
*.client[0].app[0].tOpen = 0s
*.client[0].app[0].tSend = 0s

**.ppp[*].queue.packetCapacity = 340

*.scenarioManager.script = xmldoc("../../scenarios/experiment2/lossRun12.xml")

[Config OrbtcpLossRun13]
extends = General 

**.numberOfFlows = 1 

*.client[0].app[0].connectAddress = "server[0]"
*.client[0].app[0].tOpen = 0s
*.client[0].app[0].tSend = 0s

**.ppp[*].queue.packetCapacity = 340

*.scenarioManager.script = xmldoc("../../scenarios/experiment2/lossRun13.xml")
