[General]

network = singledumbbell
sim-time-limit = 300s
record-eventlog=false
cmdenv-express-mode = true
cmdenv-redirect-output = false
cmdenv-output-file = dctcpLog.txt
**.client*.tcp.conn-8.cmdenv-log-level = detail
cmdenv-log-prefix = %t | %m |


cmdenv-event-banners = false
**.cmdenv-log-level = off

**.**.tcp.conn-*.cwnd:vector.vector-recording = true
**.**.tcp.conn-*.U:vector.vector-recording = true
**.**.tcp.conn-*.rtt:vector.vector-recording = true
**.**.tcp.conn-*.srtt:vector.vector-recording = true
**.**.tcp.conn-*.lossRecovery:vector.vector-recording = true
**.**.queue.queueLength:vector.vector-recording = true
**.**.goodput:vector.vector-recording = true
**.**.throughput:vector.vector-recording = true
**.**.bandwidth:vector.vector-recording = true
**.**.mbytesInFlight:vector.vector-recording = true
**.scalar-recording=false
**.vector-recording=false
**.bin-recording=false

**.server[*].app[*].*.thrMeasurementInterval = 1s
**.tcp.typename = "Orbtcp"
**.tcp.tcpAlgorithmClass = "OrbtcpFlavour"
**.tcp.advertisedWindow = 200000000
**.tcp.windowScalingSupport = true
**.tcp.windowScalingFactor = -1
**.tcp.increasedIWEnabled = true
**.tcp.delayedAcksEnabled = false
**.tcp.timestampSupport = true
**.tcp.ecnWillingness = false
**.tcp.nagleEnabled = true
**.tcp.stopOperationTimeout = 4000s
**.tcp.mss = 1448
**.tcp.sackSupport = true
**.client[*].numApps = 1
**.client[*].app[*].typename  = "TcpGoodputSessionApp"
*.client[*].app[0].tClose = -1s
*.client[*].app[0].sendBytes = 2GB
*.client[*].app[0].dataTransferMode = "bytecount"
*.client[*].app[0].statistic-recording = true

**.server[*].numApps = 1
**.server[*].app[*].typename  = "TcpSinkApp"
**.server[*].app[*].serverThreadModuleType = "tcpgoodputapplications.applications.tcpapp.TcpGoodputSinkAppThread"

**.ppp[*].queue.typename = "IntQueue"

**.additiveIncreasePercent = 0.05
**.eta = 0.95

**.alpha = 0.01
**.fixedAvgRTTVal = 0

**.tcp.initialSsthresh = 579200
