[General]

network = singledumbbell
sim-time-limit = 300s
record-eventlog=false
cmdenv-express-mode = true
cmdenv-redirect-output = false
cmdenv-output-file = dctcpLog.txt
**.client*.tcp.conn-8.cmdenv-log-level = detail
cmdenv-log-prefix = %t | %m |


cmdenv-event-banners = false
**.cmdenv-log-level = off

**.**.tcp.conn-*.cwnd:vector.vector-recording = true
**.**.tcp.conn-*.U:vector.vector-recording = true
**.**.tcp.conn-*.rtt:vector.vector-recording = true
**.**.tcp.conn-*.srtt:vector.vector-recording = true
**.**.tcp.conn-*.lossRecovery:vector.vector-recording = true
**.**.queue.queueLength:vector.vector-recording = true
**.**.goodput:vector.vector-recording = true
**.**.throughput:vector.vector-recording = true
**.**.bandwidth:vector.vector-recording = true
**.**.mbytesInFlight:vector.vector-recording = true
**.scalar-recording=false
**.vector-recording=false
**.bin-recording=false

**.server[*].app[*].*.thrMeasurementInterval = 1s
**.tcp.typename = "TcpPaced"
**.tcp.tcpAlgorithmClass = "TcpCubic"
**.tcp.advertisedWindow = 200000000
**.tcp.windowScalingSupport = true
**.tcp.windowScalingFactor = -1
**.tcp.increasedIWEnabled = true
**.tcp.delayedAcksEnabled = false
**.tcp.timestampSupport = true
**.tcp.ecnWillingness = false
**.tcp.nagleEnabled = true
**.tcp.stopOperationTimeout = 4000s
**.tcp.mss = 1448
**.tcp.sackSupport = true
**.client[*].numApps = 1
**.client[*].app[*].typename  = "TcpGoodputSessionApp"
*.client[*].app[0].tClose = -1s
*.client[*].app[0].sendBytes = 2GB
*.client[*].app[0].dataTransferMode = "bytecount"
*.client[*].app[0].statistic-recording = true

**.server[*].numApps = 1
**.server[*].app[*].typename  = "TcpSinkApp"
**.server[*].app[*].serverThreadModuleType = "tcpgoodputapplications.applications.tcpapp.TcpGoodputSinkAppThread"

**.ppp[*].queue.typename = "BandwidthRecorderDropTailQueue"

**.tcp.initialSsthresh = 579200

[Config CubicLossRun21]
extends = General 

**.numberOfFlows = 1 

*.client[0].app[0].connectAddress = "server[0]"
*.client[0].app[0].tOpen = 0s
*.client[0].app[0].tSend = 0s

**.ppp[*].queue.packetCapacity = 340

*.scenarioManager.script = xmldoc("../scenarios/experiment2/run21.xml")

[Config CubicLossRun35]
extends = General 

**.numberOfFlows = 1 

*.client[0].app[0].connectAddress = "server[0]"
*.client[0].app[0].tOpen = 0s
*.client[0].app[0].tSend = 0s

**.ppp[*].queue.packetCapacity = 340

*.scenarioManager.script = xmldoc("../scenarios/experiment2/run35.xml")

[Config CubicLossRun34]
extends = General 

**.numberOfFlows = 1 

*.client[0].app[0].connectAddress = "server[0]"
*.client[0].app[0].tOpen = 0s
*.client[0].app[0].tSend = 0s

**.ppp[*].queue.packetCapacity = 340

*.scenarioManager.script = xmldoc("../scenarios/experiment2/run34.xml")

[Config CubicLossRun20]
extends = General 

**.numberOfFlows = 1 

*.client[0].app[0].connectAddress = "server[0]"
*.client[0].app[0].tOpen = 0s
*.client[0].app[0].tSend = 0s

**.ppp[*].queue.packetCapacity = 340

*.scenarioManager.script = xmldoc("../scenarios/experiment2/run20.xml")

[Config CubicLossRun36]
extends = General 

**.numberOfFlows = 1 

*.client[0].app[0].connectAddress = "server[0]"
*.client[0].app[0].tOpen = 0s
*.client[0].app[0].tSend = 0s

**.ppp[*].queue.packetCapacity = 340

*.scenarioManager.script = xmldoc("../scenarios/experiment2/run36.xml")

[Config CubicLossRun22]
extends = General 

**.numberOfFlows = 1 

*.client[0].app[0].connectAddress = "server[0]"
*.client[0].app[0].tOpen = 0s
*.client[0].app[0].tSend = 0s

**.ppp[*].queue.packetCapacity = 340

*.scenarioManager.script = xmldoc("../scenarios/experiment2/run22.xml")

[Config CubicLossRun23]
extends = General 

**.numberOfFlows = 1 

*.client[0].app[0].connectAddress = "server[0]"
*.client[0].app[0].tOpen = 0s
*.client[0].app[0].tSend = 0s

**.ppp[*].queue.packetCapacity = 340

*.scenarioManager.script = xmldoc("../scenarios/experiment2/run23.xml")

[Config CubicLossRun37]
extends = General 

**.numberOfFlows = 1 

*.client[0].app[0].connectAddress = "server[0]"
*.client[0].app[0].tOpen = 0s
*.client[0].app[0].tSend = 0s

**.ppp[*].queue.packetCapacity = 340

*.scenarioManager.script = xmldoc("../scenarios/experiment2/run37.xml")

[Config CubicLossRun8]
extends = General 

**.numberOfFlows = 1 

*.client[0].app[0].connectAddress = "server[0]"
*.client[0].app[0].tOpen = 0s
*.client[0].app[0].tSend = 0s

**.ppp[*].queue.packetCapacity = 340

*.scenarioManager.script = xmldoc("../scenarios/experiment2/run8.xml")

[Config CubicLossRun33]
extends = General 

**.numberOfFlows = 1 

*.client[0].app[0].connectAddress = "server[0]"
*.client[0].app[0].tOpen = 0s
*.client[0].app[0].tSend = 0s

**.ppp[*].queue.packetCapacity = 340

*.scenarioManager.script = xmldoc("../scenarios/experiment2/run33.xml")

[Config CubicLossRun27]
extends = General 

**.numberOfFlows = 1 

*.client[0].app[0].connectAddress = "server[0]"
*.client[0].app[0].tOpen = 0s
*.client[0].app[0].tSend = 0s

**.ppp[*].queue.packetCapacity = 340

*.scenarioManager.script = xmldoc("../scenarios/experiment2/run27.xml")

[Config CubicLossRun26]
extends = General 

**.numberOfFlows = 1 

*.client[0].app[0].connectAddress = "server[0]"
*.client[0].app[0].tOpen = 0s
*.client[0].app[0].tSend = 0s

**.ppp[*].queue.packetCapacity = 340

*.scenarioManager.script = xmldoc("../scenarios/experiment2/run26.xml")

[Config CubicLossRun32]
extends = General 

**.numberOfFlows = 1 

*.client[0].app[0].connectAddress = "server[0]"
*.client[0].app[0].tOpen = 0s
*.client[0].app[0].tSend = 0s

**.ppp[*].queue.packetCapacity = 340

*.scenarioManager.script = xmldoc("../scenarios/experiment2/run32.xml")

[Config CubicLossRun9]
extends = General 

**.numberOfFlows = 1 

*.client[0].app[0].connectAddress = "server[0]"
*.client[0].app[0].tOpen = 0s
*.client[0].app[0].tSend = 0s

**.ppp[*].queue.packetCapacity = 340

*.scenarioManager.script = xmldoc("../scenarios/experiment2/run9.xml")

[Config CubicLossRun18]
extends = General 

**.numberOfFlows = 1 

*.client[0].app[0].connectAddress = "server[0]"
*.client[0].app[0].tOpen = 0s
*.client[0].app[0].tSend = 0s

**.ppp[*].queue.packetCapacity = 340

*.scenarioManager.script = xmldoc("../scenarios/experiment2/run18.xml")

[Config CubicLossRun24]
extends = General 

**.numberOfFlows = 1 

*.client[0].app[0].connectAddress = "server[0]"
*.client[0].app[0].tOpen = 0s
*.client[0].app[0].tSend = 0s

**.ppp[*].queue.packetCapacity = 340

*.scenarioManager.script = xmldoc("../scenarios/experiment2/run24.xml")

[Config CubicLossRun30]
extends = General 

**.numberOfFlows = 1 

*.client[0].app[0].connectAddress = "server[0]"
*.client[0].app[0].tOpen = 0s
*.client[0].app[0].tSend = 0s

**.ppp[*].queue.packetCapacity = 340

*.scenarioManager.script = xmldoc("../scenarios/experiment2/run30.xml")

[Config CubicLossRun31]
extends = General 

**.numberOfFlows = 1 

*.client[0].app[0].connectAddress = "server[0]"
*.client[0].app[0].tOpen = 0s
*.client[0].app[0].tSend = 0s

**.ppp[*].queue.packetCapacity = 340

*.scenarioManager.script = xmldoc("../scenarios/experiment2/run31.xml")

[Config CubicLossRun25]
extends = General 

**.numberOfFlows = 1 

*.client[0].app[0].connectAddress = "server[0]"
*.client[0].app[0].tOpen = 0s
*.client[0].app[0].tSend = 0s

**.ppp[*].queue.packetCapacity = 340

*.scenarioManager.script = xmldoc("../scenarios/experiment2/run25.xml")

[Config CubicLossRun19]
extends = General 

**.numberOfFlows = 1 

*.client[0].app[0].connectAddress = "server[0]"
*.client[0].app[0].tOpen = 0s
*.client[0].app[0].tSend = 0s

**.ppp[*].queue.packetCapacity = 340

*.scenarioManager.script = xmldoc("../scenarios/experiment2/run19.xml")

[Config CubicLossRun42]
extends = General 

**.numberOfFlows = 1 

*.client[0].app[0].connectAddress = "server[0]"
*.client[0].app[0].tOpen = 0s
*.client[0].app[0].tSend = 0s

**.ppp[*].queue.packetCapacity = 340

*.scenarioManager.script = xmldoc("../scenarios/experiment2/run42.xml")

[Config CubicLossRun43]
extends = General 

**.numberOfFlows = 1 

*.client[0].app[0].connectAddress = "server[0]"
*.client[0].app[0].tOpen = 0s
*.client[0].app[0].tSend = 0s

**.ppp[*].queue.packetCapacity = 340

*.scenarioManager.script = xmldoc("../scenarios/experiment2/run43.xml")

[Config CubicLossRun41]
extends = General 

**.numberOfFlows = 1 

*.client[0].app[0].connectAddress = "server[0]"
*.client[0].app[0].tOpen = 0s
*.client[0].app[0].tSend = 0s

**.ppp[*].queue.packetCapacity = 340

*.scenarioManager.script = xmldoc("../scenarios/experiment2/run41.xml")

[Config CubicLossRun40]
extends = General 

**.numberOfFlows = 1 

*.client[0].app[0].connectAddress = "server[0]"
*.client[0].app[0].tOpen = 0s
*.client[0].app[0].tSend = 0s

**.ppp[*].queue.packetCapacity = 340

*.scenarioManager.script = xmldoc("../scenarios/experiment2/run40.xml")

[Config CubicLossRun50]
extends = General 

**.numberOfFlows = 1 

*.client[0].app[0].connectAddress = "server[0]"
*.client[0].app[0].tOpen = 0s
*.client[0].app[0].tSend = 0s

**.ppp[*].queue.packetCapacity = 340

*.scenarioManager.script = xmldoc("../scenarios/experiment2/run50.xml")

[Config CubicLossRun44]
extends = General 

**.numberOfFlows = 1 

*.client[0].app[0].connectAddress = "server[0]"
*.client[0].app[0].tOpen = 0s
*.client[0].app[0].tSend = 0s

**.ppp[*].queue.packetCapacity = 340

*.scenarioManager.script = xmldoc("../scenarios/experiment2/run44.xml")

[Config CubicLossRun45]
extends = General 

**.numberOfFlows = 1 

*.client[0].app[0].connectAddress = "server[0]"
*.client[0].app[0].tOpen = 0s
*.client[0].app[0].tSend = 0s

**.ppp[*].queue.packetCapacity = 340

*.scenarioManager.script = xmldoc("../scenarios/experiment2/run45.xml")

[Config CubicLossRun47]
extends = General 

**.numberOfFlows = 1 

*.client[0].app[0].connectAddress = "server[0]"
*.client[0].app[0].tOpen = 0s
*.client[0].app[0].tSend = 0s

**.ppp[*].queue.packetCapacity = 340

*.scenarioManager.script = xmldoc("../scenarios/experiment2/run47.xml")

[Config CubicLossRun46]
extends = General 

**.numberOfFlows = 1 

*.client[0].app[0].connectAddress = "server[0]"
*.client[0].app[0].tOpen = 0s
*.client[0].app[0].tSend = 0s

**.ppp[*].queue.packetCapacity = 340

*.scenarioManager.script = xmldoc("../scenarios/experiment2/run46.xml")

[Config CubicLossRun48]
extends = General 

**.numberOfFlows = 1 

*.client[0].app[0].connectAddress = "server[0]"
*.client[0].app[0].tOpen = 0s
*.client[0].app[0].tSend = 0s

**.ppp[*].queue.packetCapacity = 340

*.scenarioManager.script = xmldoc("../scenarios/experiment2/run48.xml")

[Config CubicLossRun49]
extends = General 

**.numberOfFlows = 1 

*.client[0].app[0].connectAddress = "server[0]"
*.client[0].app[0].tOpen = 0s
*.client[0].app[0].tSend = 0s

**.ppp[*].queue.packetCapacity = 340

*.scenarioManager.script = xmldoc("../scenarios/experiment2/run49.xml")

[Config CubicLossRun7]
extends = General 

**.numberOfFlows = 1 

*.client[0].app[0].connectAddress = "server[0]"
*.client[0].app[0].tOpen = 0s
*.client[0].app[0].tSend = 0s

**.ppp[*].queue.packetCapacity = 340

*.scenarioManager.script = xmldoc("../scenarios/experiment2/run7.xml")

[Config CubicLossRun14]
extends = General 

**.numberOfFlows = 1 

*.client[0].app[0].connectAddress = "server[0]"
*.client[0].app[0].tOpen = 0s
*.client[0].app[0].tSend = 0s

**.ppp[*].queue.packetCapacity = 340

*.scenarioManager.script = xmldoc("../scenarios/experiment2/run14.xml")

[Config CubicLossRun28]
extends = General 

**.numberOfFlows = 1 

*.client[0].app[0].connectAddress = "server[0]"
*.client[0].app[0].tOpen = 0s
*.client[0].app[0].tSend = 0s

**.ppp[*].queue.packetCapacity = 340

*.scenarioManager.script = xmldoc("../scenarios/experiment2/run28.xml")

[Config CubicLossRun29]
extends = General 

**.numberOfFlows = 1 

*.client[0].app[0].connectAddress = "server[0]"
*.client[0].app[0].tOpen = 0s
*.client[0].app[0].tSend = 0s

**.ppp[*].queue.packetCapacity = 340

*.scenarioManager.script = xmldoc("../scenarios/experiment2/run29.xml")

[Config CubicLossRun15]
extends = General 

**.numberOfFlows = 1 

*.client[0].app[0].connectAddress = "server[0]"
*.client[0].app[0].tOpen = 0s
*.client[0].app[0].tSend = 0s

**.ppp[*].queue.packetCapacity = 340

*.scenarioManager.script = xmldoc("../scenarios/experiment2/run15.xml")

[Config CubicLossRun6]
extends = General 

**.numberOfFlows = 1 

*.client[0].app[0].connectAddress = "server[0]"
*.client[0].app[0].tOpen = 0s
*.client[0].app[0].tSend = 0s

**.ppp[*].queue.packetCapacity = 340

*.scenarioManager.script = xmldoc("../scenarios/experiment2/run6.xml")

[Config CubicLossRun4]
extends = General 

**.numberOfFlows = 1 

*.client[0].app[0].connectAddress = "server[0]"
*.client[0].app[0].tOpen = 0s
*.client[0].app[0].tSend = 0s

**.ppp[*].queue.packetCapacity = 340

*.scenarioManager.script = xmldoc("../scenarios/experiment2/run4.xml")

[Config CubicLossRun17]
extends = General 

**.numberOfFlows = 1 

*.client[0].app[0].connectAddress = "server[0]"
*.client[0].app[0].tOpen = 0s
*.client[0].app[0].tSend = 0s

**.ppp[*].queue.packetCapacity = 340

*.scenarioManager.script = xmldoc("../scenarios/experiment2/run17.xml")

[Config CubicLossRun16]
extends = General 

**.numberOfFlows = 1 

*.client[0].app[0].connectAddress = "server[0]"
*.client[0].app[0].tOpen = 0s
*.client[0].app[0].tSend = 0s

**.ppp[*].queue.packetCapacity = 340

*.scenarioManager.script = xmldoc("../scenarios/experiment2/run16.xml")

[Config CubicLossRun5]
extends = General 

**.numberOfFlows = 1 

*.client[0].app[0].connectAddress = "server[0]"
*.client[0].app[0].tOpen = 0s
*.client[0].app[0].tSend = 0s

**.ppp[*].queue.packetCapacity = 340

*.scenarioManager.script = xmldoc("../scenarios/experiment2/run5.xml")

[Config CubicLossRun1]
extends = General 

**.numberOfFlows = 1 

*.client[0].app[0].connectAddress = "server[0]"
*.client[0].app[0].tOpen = 0s
*.client[0].app[0].tSend = 0s

**.ppp[*].queue.packetCapacity = 340

*.scenarioManager.script = xmldoc("../scenarios/experiment2/run1.xml")

[Config CubicLossRun12]
extends = General 

**.numberOfFlows = 1 

*.client[0].app[0].connectAddress = "server[0]"
*.client[0].app[0].tOpen = 0s
*.client[0].app[0].tSend = 0s

**.ppp[*].queue.packetCapacity = 340

*.scenarioManager.script = xmldoc("../scenarios/experiment2/run12.xml")

[Config CubicLossRun13]
extends = General 

**.numberOfFlows = 1 

*.client[0].app[0].connectAddress = "server[0]"
*.client[0].app[0].tOpen = 0s
*.client[0].app[0].tSend = 0s

**.ppp[*].queue.packetCapacity = 340

*.scenarioManager.script = xmldoc("../scenarios/experiment2/run13.xml")

[Config CubicLossRun2]
extends = General 

**.numberOfFlows = 1 

*.client[0].app[0].connectAddress = "server[0]"
*.client[0].app[0].tOpen = 0s
*.client[0].app[0].tSend = 0s

**.ppp[*].queue.packetCapacity = 340

*.scenarioManager.script = xmldoc("../scenarios/experiment2/run2.xml")

[Config CubicLossRun39]
extends = General 

**.numberOfFlows = 1 

*.client[0].app[0].connectAddress = "server[0]"
*.client[0].app[0].tOpen = 0s
*.client[0].app[0].tSend = 0s

**.ppp[*].queue.packetCapacity = 340

*.scenarioManager.script = xmldoc("../scenarios/experiment2/run39.xml")

[Config CubicLossRun11]
extends = General 

**.numberOfFlows = 1 

*.client[0].app[0].connectAddress = "server[0]"
*.client[0].app[0].tOpen = 0s
*.client[0].app[0].tSend = 0s

**.ppp[*].queue.packetCapacity = 340

*.scenarioManager.script = xmldoc("../scenarios/experiment2/run11.xml")

[Config CubicLossRun10]
extends = General 

**.numberOfFlows = 1 

*.client[0].app[0].connectAddress = "server[0]"
*.client[0].app[0].tOpen = 0s
*.client[0].app[0].tSend = 0s

**.ppp[*].queue.packetCapacity = 340

*.scenarioManager.script = xmldoc("../scenarios/experiment2/run10.xml")

[Config CubicLossRun38]
extends = General 

**.numberOfFlows = 1 

*.client[0].app[0].connectAddress = "server[0]"
*.client[0].app[0].tOpen = 0s
*.client[0].app[0].tSend = 0s

**.ppp[*].queue.packetCapacity = 340

*.scenarioManager.script = xmldoc("../scenarios/experiment2/run38.xml")

[Config CubicLossRun3]
extends = General 

**.numberOfFlows = 1 

*.client[0].app[0].connectAddress = "server[0]"
*.client[0].app[0].tOpen = 0s
*.client[0].app[0].tSend = 0s

**.ppp[*].queue.packetCapacity = 340

*.scenarioManager.script = xmldoc("../scenarios/experiment2/run3.xml")
