[General]

network = simplenetworknoncongestiveloss
sim-time-limit = 20s
record-eventlog=false
cmdenv-express-mode = true
cmdenv-redirect-output = false
cmdenv-output-file = dctcpLog.txt
**.client*.tcp.conn-8.cmdenv-log-level = detail
cmdenv-log-prefix = %t | %m |


cmdenv-event-banners = false
**.cmdenv-log-level = off

**.**.tcp.conn-*.cwnd:vector.vector-recording = true
**.**.tcp.conn-*.u:vector.vector-recording = true
**.**.tcp.conn-*.U:vector.vector-recording = true
**.**.tcp.conn-*.additiveIncrease:vector.vector-recording = true
c**.**.tcp.conn-*.sharingFlows:vector.vector-recording = true
**.**.tcp.conn-*.tau:vector.vector-recording = true
**.**.tcp.conn-*.txRate:vector.vector-recording = true
**.**.tcp.conn-*.rtt:vector.vector-recording = true
**.**.tcp.conn-*.lossRecovery:vector.vector-recording = true
**.**.tcp.conn-*.measuringInflight:vector.vector-recording = true
**.**.tcp.conn-*.srtt:vector.vector-recording = true
**.**.tcp.conn-*.queueingDelay:vector.vector-recording = true
**.**.tcp.conn-*.estimatedRtt:vector.vector-recording = true
**.**.tcp.conn-*.avgRtt:vector.vector-recording = true
**.**.tcp.conn-*.ssthresh:vector.vector-recording = true
**.**.queue.queueLength:vector.vector-recording = true
**.**.queue.queueingTime:vector.vector-recording = true
**.**.queue.avgRttQueue:vector.vector-recording = true
**.**.ReceiverSideThroughput:vector.vector-recording = true
**.**.numberOfFlows:vector.vector-recording = true
**.**.alpha:vector.vector-recording = true
**.**.persistentQueueingDelay:vector.vector-recording = true
**.scalar-recording=false
**.vector-recording=false
**.bin-recording=false

**.server[*].app[*].*.thrMeasurementInterval = 0.3s
**.server[*].app[*].*.thrMeasurementBandwidth = 125000000

**.tcp.typename = "Tcp"
**.tcp.tcpAlgorithmClass = "TcpReno"
**.tcp.advertisedWindow = 200000000
**.tcp.windowScalingSupport = true
**.tcp.windowScalingFactor = -1
**.tcp.increasedIWEnabled = true
**.tcp.delayedAcksEnabled = false
**.tcp.ecnWillingness = false
**.tcp.nagleEnabled = true
**.tcp.stopOperationTimeout = 4000s
**.tcp.mss = 1460
**.tcp.sackSupport = true
**.tcp.initialSsthresh = 637500

**.client[*].numApps = 1
**.client[*].app[*].typename  = "TcpSessionApp"
*.client[*].app[0].tClose = -1s
*.client[*].app[0].sendBytes = 2GB
*.client[*].app[0].dataTransferMode = "bytecount"
*.client[*].app[0].statistic-recording = true

**.server[*].numApps = 1
**.server[*].app[*].typename  = "TcpSinkApp"
**.server[*].app[*].serverThreadModuleType = "orbtcp.applications.tcpapp.TcpThroughputSinkAppThread"

**.ppp[*].queue.typename = "DropTailQueue"

[Config OneFlow1msNonCongestiveLoss]
extends = General

**.numberOfFlows = 1

*.client[0].app[0].connectAddress = "server[0]"
*.client[0].app[0].tOpen = 0s
*.client[0].app[0].tSend = 0s

*.client[*].app[0].connectAddress = "server[" + string(parentIndex()) +"]"
*.client[*].app[0].tOpen = 0s
*.client[*].app[0].tSend = uniform(0s,5s)

**.ppp[*].queue.packetCapacity = 12

*.scenarioManager.script = xmldoc("../scenarios/oneFlows/1ms.xml")

[Config OneFlow25msNonCongestiveLoss]
extends = General

**.numberOfFlows = 1

*.client[0].app[0].connectAddress = "server[0]"
*.client[0].app[0].tOpen = 0s
*.client[0].app[0].tSend = 0s

*.client[*].app[0].connectAddress = "server[" + string(parentIndex()) +"]"
*.client[*].app[0].tOpen = 0s
*.client[*].app[0].tSend = uniform(0s,5s)

**.ppp[*].queue.packetCapacity = 321

*.scenarioManager.script = xmldoc("../scenarios/oneFlows/25ms.xml")

[Config OneFlow75msNonCongestiveLoss]
extends = General

**.numberOfFlows = 1

*.client[0].app[0].connectAddress = "server[0]"
*.client[0].app[0].tOpen = 0s
*.client[0].app[0].tSend = 0s

*.client[*].app[0].connectAddress = "server[" + string(parentIndex()) +"]"
*.client[*].app[0].tOpen = 0s
*.client[*].app[0].tSend = uniform(0s,5s)

**.ppp[*].queue.packetCapacity = 963

*.scenarioManager.script = xmldoc("../scenarios/oneFlows/75ms.xml")

[Config OneFlow100msNonCongestiveLoss]
extends = General

**.numberOfFlows = 1

*.client[0].app[0].connectAddress = "server[0]"
*.client[0].app[0].tOpen = 0s
*.client[0].app[0].tSend = 0s

*.client[*].app[0].connectAddress = "server[" + string(parentIndex()) +"]"
*.client[*].app[0].tOpen = 0s
*.client[*].app[0].tSend = uniform(0s,5s)

**.ppp[*].queue.packetCapacity = 1284

*.scenarioManager.script = xmldoc("../scenarios/oneFlows/100ms.xml")

[Config OneFlow50msNonCongestiveLoss]
extends = General

**.numberOfFlows = 1

*.client[0].app[0].connectAddress = "server[0]"
*.client[0].app[0].tOpen = 0s
*.client[0].app[0].tSend = 0s

*.client[*].app[0].connectAddress = "server[" + string(parentIndex()) +"]"
*.client[*].app[0].tOpen = 0s
*.client[*].app[0].tSend = uniform(0s,5s)

**.ppp[*].queue.packetCapacity = 642

*.scenarioManager.script = xmldoc("../scenarios/oneFlows/50ms.xml")

[Config TwoFlows1ms75msNonCongestiveLoss]
extends = General

**.numberOfFlows = 2

*.client[0].app[0].connectAddress = "server[0]"
*.client[0].app[0].tOpen = 0s
*.client[0].app[0].tSend = 0s

*.client[*].app[0].connectAddress = "server[" + string(parentIndex()) +"]"
*.client[*].app[0].tOpen = 0s
*.client[*].app[0].tSend = uniform(0s,5s)

**.ppp[*].queue.packetCapacity = 963

*.scenarioManager.script = xmldoc("../scenarios/twoFlows/1-75ms.xml")

[Config TwoFlows50ms75msNonCongestiveLoss]
extends = General

**.numberOfFlows = 2

*.client[0].app[0].connectAddress = "server[0]"
*.client[0].app[0].tOpen = 0s
*.client[0].app[0].tSend = 0s

*.client[*].app[0].connectAddress = "server[" + string(parentIndex()) +"]"
*.client[*].app[0].tOpen = 0s
*.client[*].app[0].tSend = uniform(0s,5s)

**.ppp[*].queue.packetCapacity = 963

*.scenarioManager.script = xmldoc("../scenarios/twoFlows/50-75ms.xml")

[Config TwoFlows100ms100msNonCongestiveLoss]
extends = General

**.numberOfFlows = 2

*.client[0].app[0].connectAddress = "server[0]"
*.client[0].app[0].tOpen = 0s
*.client[0].app[0].tSend = 0s

*.client[*].app[0].connectAddress = "server[" + string(parentIndex()) +"]"
*.client[*].app[0].tOpen = 0s
*.client[*].app[0].tSend = uniform(0s,5s)

**.ppp[*].queue.packetCapacity = 1284

*.scenarioManager.script = xmldoc("../scenarios/twoFlows/100-100ms.xml")

[Config TwoFlows75ms100msNonCongestiveLoss]
extends = General

**.numberOfFlows = 2

*.client[0].app[0].connectAddress = "server[0]"
*.client[0].app[0].tOpen = 0s
*.client[0].app[0].tSend = 0s

*.client[*].app[0].connectAddress = "server[" + string(parentIndex()) +"]"
*.client[*].app[0].tOpen = 0s
*.client[*].app[0].tSend = uniform(0s,5s)

**.ppp[*].queue.packetCapacity = 1284

*.scenarioManager.script = xmldoc("../scenarios/twoFlows/75-100ms.xml")

[Config TwoFlows25ms25msNonCongestiveLoss]
extends = General

**.numberOfFlows = 2

*.client[0].app[0].connectAddress = "server[0]"
*.client[0].app[0].tOpen = 0s
*.client[0].app[0].tSend = 0s

*.client[*].app[0].connectAddress = "server[" + string(parentIndex()) +"]"
*.client[*].app[0].tOpen = 0s
*.client[*].app[0].tSend = uniform(0s,5s)

**.ppp[*].queue.packetCapacity = 321

*.scenarioManager.script = xmldoc("../scenarios/twoFlows/25-25ms.xml")

[Config TwoFlows25ms100msNonCongestiveLoss]
extends = General

**.numberOfFlows = 2

*.client[0].app[0].connectAddress = "server[0]"
*.client[0].app[0].tOpen = 0s
*.client[0].app[0].tSend = 0s

*.client[*].app[0].connectAddress = "server[" + string(parentIndex()) +"]"
*.client[*].app[0].tOpen = 0s
*.client[*].app[0].tSend = uniform(0s,5s)

**.ppp[*].queue.packetCapacity = 1284

*.scenarioManager.script = xmldoc("../scenarios/twoFlows/25-100ms.xml")

[Config TwoFlows1ms1msNonCongestiveLoss]
extends = General

**.numberOfFlows = 2

*.client[0].app[0].connectAddress = "server[0]"
*.client[0].app[0].tOpen = 0s
*.client[0].app[0].tSend = 0s

*.client[*].app[0].connectAddress = "server[" + string(parentIndex()) +"]"
*.client[*].app[0].tOpen = 0s
*.client[*].app[0].tSend = uniform(0s,5s)

**.ppp[*].queue.packetCapacity = 12

*.scenarioManager.script = xmldoc("../scenarios/twoFlows/1-1ms.xml")

[Config TwoFlows50ms50msNonCongestiveLoss]
extends = General

**.numberOfFlows = 2

*.client[0].app[0].connectAddress = "server[0]"
*.client[0].app[0].tOpen = 0s
*.client[0].app[0].tSend = 0s

*.client[*].app[0].connectAddress = "server[" + string(parentIndex()) +"]"
*.client[*].app[0].tOpen = 0s
*.client[*].app[0].tSend = uniform(0s,5s)

**.ppp[*].queue.packetCapacity = 642

*.scenarioManager.script = xmldoc("../scenarios/twoFlows/50-50ms.xml")

[Config TwoFlows75ms75msNonCongestiveLoss]
extends = General

**.numberOfFlows = 2

*.client[0].app[0].connectAddress = "server[0]"
*.client[0].app[0].tOpen = 0s
*.client[0].app[0].tSend = 0s

*.client[*].app[0].connectAddress = "server[" + string(parentIndex()) +"]"
*.client[*].app[0].tOpen = 0s
*.client[*].app[0].tSend = uniform(0s,5s)

**.ppp[*].queue.packetCapacity = 963

*.scenarioManager.script = xmldoc("../scenarios/twoFlows/75-75ms.xml")

[Config TwoFlows1ms50msNonCongestiveLoss]
extends = General

**.numberOfFlows = 2

*.client[0].app[0].connectAddress = "server[0]"
*.client[0].app[0].tOpen = 0s
*.client[0].app[0].tSend = 0s

*.client[*].app[0].connectAddress = "server[" + string(parentIndex()) +"]"
*.client[*].app[0].tOpen = 0s
*.client[*].app[0].tSend = uniform(0s,5s)

**.ppp[*].queue.packetCapacity = 642

*.scenarioManager.script = xmldoc("../scenarios/twoFlows/1-50ms.xml")

[Config TwoFlows25ms75msNonCongestiveLoss]
extends = General

**.numberOfFlows = 2

*.client[0].app[0].connectAddress = "server[0]"
*.client[0].app[0].tOpen = 0s
*.client[0].app[0].tSend = 0s

*.client[*].app[0].connectAddress = "server[" + string(parentIndex()) +"]"
*.client[*].app[0].tOpen = 0s
*.client[*].app[0].tSend = uniform(0s,5s)

**.ppp[*].queue.packetCapacity = 963

*.scenarioManager.script = xmldoc("../scenarios/twoFlows/25-75ms.xml")

[Config TwoFlows1ms100msNonCongestiveLoss]
extends = General

**.numberOfFlows = 2

*.client[0].app[0].connectAddress = "server[0]"
*.client[0].app[0].tOpen = 0s
*.client[0].app[0].tSend = 0s

*.client[*].app[0].connectAddress = "server[" + string(parentIndex()) +"]"
*.client[*].app[0].tOpen = 0s
*.client[*].app[0].tSend = uniform(0s,5s)

**.ppp[*].queue.packetCapacity = 1284

*.scenarioManager.script = xmldoc("../scenarios/twoFlows/1-100ms.xml")

[Config TwoFlows25ms50msNonCongestiveLoss]
extends = General

**.numberOfFlows = 2

*.client[0].app[0].connectAddress = "server[0]"
*.client[0].app[0].tOpen = 0s
*.client[0].app[0].tSend = 0s

*.client[*].app[0].connectAddress = "server[" + string(parentIndex()) +"]"
*.client[*].app[0].tOpen = 0s
*.client[*].app[0].tSend = uniform(0s,5s)

**.ppp[*].queue.packetCapacity = 642

*.scenarioManager.script = xmldoc("../scenarios/twoFlows/25-50ms.xml")

[Config TwoFlows1ms25msNonCongestiveLoss]
extends = General

**.numberOfFlows = 2

*.client[0].app[0].connectAddress = "server[0]"
*.client[0].app[0].tOpen = 0s
*.client[0].app[0].tSend = 0s

*.client[*].app[0].connectAddress = "server[" + string(parentIndex()) +"]"
*.client[*].app[0].tOpen = 0s
*.client[*].app[0].tSend = uniform(0s,5s)

**.ppp[*].queue.packetCapacity = 321

*.scenarioManager.script = xmldoc("../scenarios/twoFlows/1-25ms.xml")

[Config TwoFlows50ms100msNonCongestiveLoss]
extends = General

**.numberOfFlows = 2

*.client[0].app[0].connectAddress = "server[0]"
*.client[0].app[0].tOpen = 0s
*.client[0].app[0].tSend = 0s

*.client[*].app[0].connectAddress = "server[" + string(parentIndex()) +"]"
*.client[*].app[0].tOpen = 0s
*.client[*].app[0].tSend = uniform(0s,5s)

**.ppp[*].queue.packetCapacity = 1284

*.scenarioManager.script = xmldoc("../scenarios/twoFlows/50-100ms.xml")

[Config TenFlows1ms1ms1ms1ms1ms25ms25ms75ms75ms100msNonCongestiveLoss]
extends = General

**.numberOfFlows = 10

*.client[0].app[0].connectAddress = "server[0]"
*.client[0].app[0].tOpen = 0s
*.client[0].app[0].tSend = 0s

*.client[*].app[0].connectAddress = "server[" + string(parentIndex()) +"]"
*.client[*].app[0].tOpen = 0s
*.client[*].app[0].tSend = uniform(0s,5s)

**.ppp[*].queue.packetCapacity = 1284

*.scenarioManager.script = xmldoc("../scenarios/tenFlows/1-1-1-1-1-25-25-75-75-100ms.xml")

[Config TenFlows1ms1ms10ms10ms25ms100ms100ms100ms100ms100msNonCongestiveLoss]
extends = General

**.numberOfFlows = 10

*.client[0].app[0].connectAddress = "server[0]"
*.client[0].app[0].tOpen = 0s
*.client[0].app[0].tSend = 0s

*.client[*].app[0].connectAddress = "server[" + string(parentIndex()) +"]"
*.client[*].app[0].tOpen = 0s
*.client[*].app[0].tSend = uniform(0s,5s)

**.ppp[*].queue.packetCapacity = 1284

*.scenarioManager.script = xmldoc("../scenarios/tenFlows/1-1-10-10-25-100-100-100-100-100ms.xml")

[Config TenFlows1ms1ms25ms25ms50ms50ms75ms75ms100ms100msNonCongestiveLoss]
extends = General

**.numberOfFlows = 10

*.client[0].app[0].connectAddress = "server[0]"
*.client[0].app[0].tOpen = 0s
*.client[0].app[0].tSend = 0s

*.client[*].app[0].connectAddress = "server[" + string(parentIndex()) +"]"
*.client[*].app[0].tOpen = 0s
*.client[*].app[0].tSend = uniform(0s,5s)

**.ppp[*].queue.packetCapacity = 1284

*.scenarioManager.script = xmldoc("../scenarios/tenFlows/1-1-25-25-50-50-75-75-100-100ms.xml")

[Config TenFlows1ms1ms50ms50ms50ms50ms75ms75ms100ms100msNonCongestiveLoss]
extends = General

**.numberOfFlows = 10

*.client[0].app[0].connectAddress = "server[0]"
*.client[0].app[0].tOpen = 0s
*.client[0].app[0].tSend = 0s

*.client[*].app[0].connectAddress = "server[" + string(parentIndex()) +"]"
*.client[*].app[0].tOpen = 0s
*.client[*].app[0].tSend = uniform(0s,5s)

**.ppp[*].queue.packetCapacity = 1284

*.scenarioManager.script = xmldoc("../scenarios/tenFlows/1-1-50-50-50-50-75-75-100-100ms.xml")

[Config TwentyfiveFlows5ms9ms13ms17ms21ms25ms29ms33ms37ms41ms45ms49ms53ms57ms61ms65ms69ms73ms77ms81ms85ms89ms93ms97ms100msNonCongestiveLoss]
extends = General

**.numberOfFlows = 25

*.client[0].app[0].connectAddress = "server[0]"
*.client[0].app[0].tOpen = 0s
*.client[0].app[0].tSend = 0s

*.client[*].app[0].connectAddress = "server[" + string(parentIndex()) +"]"
*.client[*].app[0].tOpen = 0s
*.client[*].app[0].tSend = uniform(0s,5s)

**.ppp[*].queue.packetCapacity = 1284

*.scenarioManager.script = xmldoc("../scenarios/twentyfiveFlows/5-9-13-17-21-25-29-33-37-41-45-49-53-57-61-65-69-73-77-81-85-89-93-97-100ms.xml")

[Config TwentyfiveFlows1ms1ms1ms1ms1ms1ms1ms1ms1ms1ms1ms1ms1ms5ms5ms5ms5ms5ms5ms5ms10ms10ms25ms25ms25msNonCongestiveLoss]
extends = General

**.numberOfFlows = 25

*.client[0].app[0].connectAddress = "server[0]"
*.client[0].app[0].tOpen = 0s
*.client[0].app[0].tSend = 0s

*.client[*].app[0].connectAddress = "server[" + string(parentIndex()) +"]"
*.client[*].app[0].tOpen = 0s
*.client[*].app[0].tSend = uniform(0s,5s)

**.ppp[*].queue.packetCapacity = 321

*.scenarioManager.script = xmldoc("../scenarios/twentyfiveFlows/1-1-1-1-1-1-1-1-1-1-1-1-1-5-5-5-5-5-5-5-10-10-25-25-25ms.xml")

[Config TwentyfiveFlows1ms5ms10ms25ms25ms25ms25ms50ms50ms50ms50ms50ms50ms75ms75ms75ms75ms75ms75ms75ms75ms75ms100ms100ms100msNonCongestiveLoss]
extends = General

**.numberOfFlows = 25

*.client[0].app[0].connectAddress = "server[0]"
*.client[0].app[0].tOpen = 0s
*.client[0].app[0].tSend = 0s

*.client[*].app[0].connectAddress = "server[" + string(parentIndex()) +"]"
*.client[*].app[0].tOpen = 0s
*.client[*].app[0].tSend = uniform(0s,5s)

**.ppp[*].queue.packetCapacity = 1284

*.scenarioManager.script = xmldoc("../scenarios/twentyfiveFlows/1-5-10-25-25-25-25-50-50-50-50-50-50-75-75-75-75-75-75-75-75-75-100-100-100ms.xml")

[Config OneFlow1msTenMsPathChangeNonCongestiveLoss]
extends = General

**.numberOfFlows = 1

*.client[0].app[0].connectAddress = "server[0]"
*.client[0].app[0].tOpen = 0s
*.client[0].app[0].tSend = 0s

*.client[*].app[0].connectAddress = "server[" + string(parentIndex()) +"]"
*.client[*].app[0].tOpen = 0s
*.client[*].app[0].tSend = uniform(0s,5s)

**.ppp[*].queue.packetCapacity = 14

*.scenarioManager.script = xmldoc("../scenarios/tenMsPathChange/oneFlows/1ms.xml")

[Config OneFlow25msTenMsPathChangeNonCongestiveLoss]
extends = General

**.numberOfFlows = 1

*.client[0].app[0].connectAddress = "server[0]"
*.client[0].app[0].tOpen = 0s
*.client[0].app[0].tSend = 0s

*.client[*].app[0].connectAddress = "server[" + string(parentIndex()) +"]"
*.client[*].app[0].tOpen = 0s
*.client[*].app[0].tSend = uniform(0s,5s)

**.ppp[*].queue.packetCapacity = 353

*.scenarioManager.script = xmldoc("../scenarios/tenMsPathChange/oneFlows/25ms.xml")

[Config OneFlow75msTenMsPathChangeNonCongestiveLoss]
extends = General

**.numberOfFlows = 1

*.client[0].app[0].connectAddress = "server[0]"
*.client[0].app[0].tOpen = 0s
*.client[0].app[0].tSend = 0s

*.client[*].app[0].connectAddress = "server[" + string(parentIndex()) +"]"
*.client[*].app[0].tOpen = 0s
*.client[*].app[0].tSend = uniform(0s,5s)

**.ppp[*].queue.packetCapacity = 1059

*.scenarioManager.script = xmldoc("../scenarios/tenMsPathChange/oneFlows/75ms.xml")

[Config OneFlow100msTenMsPathChangeNonCongestiveLoss]
extends = General

**.numberOfFlows = 1

*.client[0].app[0].connectAddress = "server[0]"
*.client[0].app[0].tOpen = 0s
*.client[0].app[0].tSend = 0s

*.client[*].app[0].connectAddress = "server[" + string(parentIndex()) +"]"
*.client[*].app[0].tOpen = 0s
*.client[*].app[0].tSend = uniform(0s,5s)

**.ppp[*].queue.packetCapacity = 1412

*.scenarioManager.script = xmldoc("../scenarios/tenMsPathChange/oneFlows/100ms.xml")

[Config OneFlow50msTenMsPathChangeNonCongestiveLoss]
extends = General

**.numberOfFlows = 1

*.client[0].app[0].connectAddress = "server[0]"
*.client[0].app[0].tOpen = 0s
*.client[0].app[0].tSend = 0s

*.client[*].app[0].connectAddress = "server[" + string(parentIndex()) +"]"
*.client[*].app[0].tOpen = 0s
*.client[*].app[0].tSend = uniform(0s,5s)

**.ppp[*].queue.packetCapacity = 706

*.scenarioManager.script = xmldoc("../scenarios/tenMsPathChange/oneFlows/50ms.xml")

[Config OneFlow25msMinusTenMsPathChangeNonCongestiveLoss]
extends = General

**.numberOfFlows = 1

*.client[0].app[0].connectAddress = "server[0]"
*.client[0].app[0].tOpen = 0s
*.client[0].app[0].tSend = 0s

*.client[*].app[0].connectAddress = "server[" + string(parentIndex()) +"]"
*.client[*].app[0].tOpen = 0s
*.client[*].app[0].tSend = uniform(0s,5s)

**.ppp[*].queue.packetCapacity = 353

*.scenarioManager.script = xmldoc("../scenarios/minusTenMsPathChange/oneFlows/25ms.xml")

[Config OneFlow75msMinusTenMsPathChangeNonCongestiveLoss]
extends = General

**.numberOfFlows = 1

*.client[0].app[0].connectAddress = "server[0]"
*.client[0].app[0].tOpen = 0s
*.client[0].app[0].tSend = 0s

*.client[*].app[0].connectAddress = "server[" + string(parentIndex()) +"]"
*.client[*].app[0].tOpen = 0s
*.client[*].app[0].tSend = uniform(0s,5s)

**.ppp[*].queue.packetCapacity = 1059

*.scenarioManager.script = xmldoc("../scenarios/minusTenMsPathChange/oneFlows/75ms.xml")

[Config OneFlow100msMinusTenMsPathChangeNonCongestiveLoss]
extends = General

**.numberOfFlows = 1

*.client[0].app[0].connectAddress = "server[0]"
*.client[0].app[0].tOpen = 0s
*.client[0].app[0].tSend = 0s

*.client[*].app[0].connectAddress = "server[" + string(parentIndex()) +"]"
*.client[*].app[0].tOpen = 0s
*.client[*].app[0].tSend = uniform(0s,5s)

**.ppp[*].queue.packetCapacity = 1412

*.scenarioManager.script = xmldoc("../scenarios/minusTenMsPathChange/oneFlows/100ms.xml")

[Config OneFlow50msMinusTenMsPathChangeNonCongestiveLoss]
extends = General

**.numberOfFlows = 1

*.client[0].app[0].connectAddress = "server[0]"
*.client[0].app[0].tOpen = 0s
*.client[0].app[0].tSend = 0s

*.client[*].app[0].connectAddress = "server[" + string(parentIndex()) +"]"
*.client[*].app[0].tOpen = 0s
*.client[*].app[0].tSend = uniform(0s,5s)

**.ppp[*].queue.packetCapacity = 706

*.scenarioManager.script = xmldoc("../scenarios/minusTenMsPathChange/oneFlows/50ms.xml")

[Config OneFlow11msMinusTenMsPathChangeNonCongestiveLoss]
extends = General

**.numberOfFlows = 1

*.client[0].app[0].connectAddress = "server[0]"
*.client[0].app[0].tOpen = 0s
*.client[0].app[0].tSend = 0s

*.client[*].app[0].connectAddress = "server[" + string(parentIndex()) +"]"
*.client[*].app[0].tOpen = 0s
*.client[*].app[0].tSend = uniform(0s,5s)

**.ppp[*].queue.packetCapacity = 155

*.scenarioManager.script = xmldoc("../scenarios/minusTenMsPathChange/oneFlows/11ms.xml")

[Config OneFlow1msTwentyfiveMsPathChangeNonCongestiveLoss]
extends = General

**.numberOfFlows = 1

*.client[0].app[0].connectAddress = "server[0]"
*.client[0].app[0].tOpen = 0s
*.client[0].app[0].tSend = 0s

*.client[*].app[0].connectAddress = "server[" + string(parentIndex()) +"]"
*.client[*].app[0].tOpen = 0s
*.client[*].app[0].tSend = uniform(0s,5s)

**.ppp[*].queue.packetCapacity = 14

*.scenarioManager.script = xmldoc("../scenarios/twentyfiveMsPathChange/oneFlows/1ms.xml")

[Config OneFlow25msTwentyfiveMsPathChangeNonCongestiveLoss]
extends = General

**.numberOfFlows = 1

*.client[0].app[0].connectAddress = "server[0]"
*.client[0].app[0].tOpen = 0s
*.client[0].app[0].tSend = 0s

*.client[*].app[0].connectAddress = "server[" + string(parentIndex()) +"]"
*.client[*].app[0].tOpen = 0s
*.client[*].app[0].tSend = uniform(0s,5s)

**.ppp[*].queue.packetCapacity = 353

*.scenarioManager.script = xmldoc("../scenarios/twentyfiveMsPathChange/oneFlows/25ms.xml")

[Config OneFlow75msTwentyfiveMsPathChangeNonCongestiveLoss]
extends = General

**.numberOfFlows = 1

*.client[0].app[0].connectAddress = "server[0]"
*.client[0].app[0].tOpen = 0s
*.client[0].app[0].tSend = 0s

*.client[*].app[0].connectAddress = "server[" + string(parentIndex()) +"]"
*.client[*].app[0].tOpen = 0s
*.client[*].app[0].tSend = uniform(0s,5s)

**.ppp[*].queue.packetCapacity = 1059

*.scenarioManager.script = xmldoc("../scenarios/twentyfiveMsPathChange/oneFlows/75ms.xml")

[Config OneFlow100msTwentyfiveMsPathChangeNonCongestiveLoss]
extends = General

**.numberOfFlows = 1

*.client[0].app[0].connectAddress = "server[0]"
*.client[0].app[0].tOpen = 0s
*.client[0].app[0].tSend = 0s

*.client[*].app[0].connectAddress = "server[" + string(parentIndex()) +"]"
*.client[*].app[0].tOpen = 0s
*.client[*].app[0].tSend = uniform(0s,5s)

**.ppp[*].queue.packetCapacity = 1412

*.scenarioManager.script = xmldoc("../scenarios/twentyfiveMsPathChange/oneFlows/100ms.xml")

[Config OneFlow50msTwentyfiveMsPathChangeNonCongestiveLoss]
extends = General

**.numberOfFlows = 1

*.client[0].app[0].connectAddress = "server[0]"
*.client[0].app[0].tOpen = 0s
*.client[0].app[0].tSend = 0s

*.client[*].app[0].connectAddress = "server[" + string(parentIndex()) +"]"
*.client[*].app[0].tOpen = 0s
*.client[*].app[0].tSend = uniform(0s,5s)

**.ppp[*].queue.packetCapacity = 706

*.scenarioManager.script = xmldoc("../scenarios/twentyfiveMsPathChange/oneFlows/50ms.xml")

[Config OneFlow75msMinusTwentyfiveMsPathChangeNonCongestiveLoss]
extends = General

**.numberOfFlows = 1

*.client[0].app[0].connectAddress = "server[0]"
*.client[0].app[0].tOpen = 0s
*.client[0].app[0].tSend = 0s

*.client[*].app[0].connectAddress = "server[" + string(parentIndex()) +"]"
*.client[*].app[0].tOpen = 0s
*.client[*].app[0].tSend = uniform(0s,5s)

**.ppp[*].queue.packetCapacity = 1059

*.scenarioManager.script = xmldoc("../scenarios/minusTwentyfiveMsPathChange/oneFlows/75ms.xml")

[Config OneFlow36msMinusTwentyfiveMsPathChangeNonCongestiveLoss]
extends = General

**.numberOfFlows = 1

*.client[0].app[0].connectAddress = "server[0]"
*.client[0].app[0].tOpen = 0s
*.client[0].app[0].tSend = 0s

*.client[*].app[0].connectAddress = "server[" + string(parentIndex()) +"]"
*.client[*].app[0].tOpen = 0s
*.client[*].app[0].tSend = uniform(0s,5s)

**.ppp[*].queue.packetCapacity = 508

*.scenarioManager.script = xmldoc("../scenarios/minusTwentyfiveMsPathChange/oneFlows/36ms.xml")

[Config OneFlow100msMinusTwentyfiveMsPathChangeNonCongestiveLoss]
extends = General

**.numberOfFlows = 1

*.client[0].app[0].connectAddress = "server[0]"
*.client[0].app[0].tOpen = 0s
*.client[0].app[0].tSend = 0s

*.client[*].app[0].connectAddress = "server[" + string(parentIndex()) +"]"
*.client[*].app[0].tOpen = 0s
*.client[*].app[0].tSend = uniform(0s,5s)

**.ppp[*].queue.packetCapacity = 1412

*.scenarioManager.script = xmldoc("../scenarios/minusTwentyfiveMsPathChange/oneFlows/100ms.xml")

[Config OneFlow50msMinusTwentyfiveMsPathChangeNonCongestiveLoss]
extends = General

**.numberOfFlows = 1

*.client[0].app[0].connectAddress = "server[0]"
*.client[0].app[0].tOpen = 0s
*.client[0].app[0].tSend = 0s

*.client[*].app[0].connectAddress = "server[" + string(parentIndex()) +"]"
*.client[*].app[0].tOpen = 0s
*.client[*].app[0].tSend = uniform(0s,5s)

**.ppp[*].queue.packetCapacity = 706

*.scenarioManager.script = xmldoc("../scenarios/minusTwentyfiveMsPathChange/oneFlows/50ms.xml")

[Config TwoFlows1ms75msTenMsPathChangeNonCongestiveLoss]
extends = General

**.numberOfFlows = 2

*.client[0].app[0].connectAddress = "server[0]"
*.client[0].app[0].tOpen = 0s
*.client[0].app[0].tSend = 0s

*.client[*].app[0].connectAddress = "server[" + string(parentIndex()) +"]"
*.client[*].app[0].tOpen = 0s
*.client[*].app[0].tSend = uniform(0s,5s)

**.ppp[*].queue.packetCapacity = 1059

*.scenarioManager.script = xmldoc("../scenarios/tenMsPathChange/twoFlows/1-75ms.xml")

[Config TwoFlows50ms75msTenMsPathChangeNonCongestiveLoss]
extends = General

**.numberOfFlows = 2

*.client[0].app[0].connectAddress = "server[0]"
*.client[0].app[0].tOpen = 0s
*.client[0].app[0].tSend = 0s

*.client[*].app[0].connectAddress = "server[" + string(parentIndex()) +"]"
*.client[*].app[0].tOpen = 0s
*.client[*].app[0].tSend = uniform(0s,5s)

**.ppp[*].queue.packetCapacity = 1059

*.scenarioManager.script = xmldoc("../scenarios/tenMsPathChange/twoFlows/50-75ms.xml")

[Config TwoFlows100ms100msTenMsPathChangeNonCongestiveLoss]
extends = General

**.numberOfFlows = 2

*.client[0].app[0].connectAddress = "server[0]"
*.client[0].app[0].tOpen = 0s
*.client[0].app[0].tSend = 0s

*.client[*].app[0].connectAddress = "server[" + string(parentIndex()) +"]"
*.client[*].app[0].tOpen = 0s
*.client[*].app[0].tSend = uniform(0s,5s)

**.ppp[*].queue.packetCapacity = 1412

*.scenarioManager.script = xmldoc("../scenarios/tenMsPathChange/twoFlows/100-100ms.xml")

[Config TwoFlows75ms100msTenMsPathChangeNonCongestiveLoss]
extends = General

**.numberOfFlows = 2

*.client[0].app[0].connectAddress = "server[0]"
*.client[0].app[0].tOpen = 0s
*.client[0].app[0].tSend = 0s

*.client[*].app[0].connectAddress = "server[" + string(parentIndex()) +"]"
*.client[*].app[0].tOpen = 0s
*.client[*].app[0].tSend = uniform(0s,5s)

**.ppp[*].queue.packetCapacity = 1412

*.scenarioManager.script = xmldoc("../scenarios/tenMsPathChange/twoFlows/75-100ms.xml")

[Config TwoFlows25ms25msTenMsPathChangeNonCongestiveLoss]
extends = General

**.numberOfFlows = 2

*.client[0].app[0].connectAddress = "server[0]"
*.client[0].app[0].tOpen = 0s
*.client[0].app[0].tSend = 0s

*.client[*].app[0].connectAddress = "server[" + string(parentIndex()) +"]"
*.client[*].app[0].tOpen = 0s
*.client[*].app[0].tSend = uniform(0s,5s)

**.ppp[*].queue.packetCapacity = 353

*.scenarioManager.script = xmldoc("../scenarios/tenMsPathChange/twoFlows/25-25ms.xml")

[Config TwoFlows25ms100msTenMsPathChangeNonCongestiveLoss]
extends = General

**.numberOfFlows = 2

*.client[0].app[0].connectAddress = "server[0]"
*.client[0].app[0].tOpen = 0s
*.client[0].app[0].tSend = 0s

*.client[*].app[0].connectAddress = "server[" + string(parentIndex()) +"]"
*.client[*].app[0].tOpen = 0s
*.client[*].app[0].tSend = uniform(0s,5s)

**.ppp[*].queue.packetCapacity = 1412

*.scenarioManager.script = xmldoc("../scenarios/tenMsPathChange/twoFlows/25-100ms.xml")

[Config TwoFlows1ms1msTenMsPathChangeNonCongestiveLoss]
extends = General

**.numberOfFlows = 2

*.client[0].app[0].connectAddress = "server[0]"
*.client[0].app[0].tOpen = 0s
*.client[0].app[0].tSend = 0s

*.client[*].app[0].connectAddress = "server[" + string(parentIndex()) +"]"
*.client[*].app[0].tOpen = 0s
*.client[*].app[0].tSend = uniform(0s,5s)

**.ppp[*].queue.packetCapacity = 14

*.scenarioManager.script = xmldoc("../scenarios/tenMsPathChange/twoFlows/1-1ms.xml")

[Config TwoFlows50ms50msTenMsPathChangeNonCongestiveLoss]
extends = General

**.numberOfFlows = 2

*.client[0].app[0].connectAddress = "server[0]"
*.client[0].app[0].tOpen = 0s
*.client[0].app[0].tSend = 0s

*.client[*].app[0].connectAddress = "server[" + string(parentIndex()) +"]"
*.client[*].app[0].tOpen = 0s
*.client[*].app[0].tSend = uniform(0s,5s)

**.ppp[*].queue.packetCapacity = 706

*.scenarioManager.script = xmldoc("../scenarios/tenMsPathChange/twoFlows/50-50ms.xml")

[Config TwoFlows75ms75msTenMsPathChangeNonCongestiveLoss]
extends = General

**.numberOfFlows = 2

*.client[0].app[0].connectAddress = "server[0]"
*.client[0].app[0].tOpen = 0s
*.client[0].app[0].tSend = 0s

*.client[*].app[0].connectAddress = "server[" + string(parentIndex()) +"]"
*.client[*].app[0].tOpen = 0s
*.client[*].app[0].tSend = uniform(0s,5s)

**.ppp[*].queue.packetCapacity = 1059

*.scenarioManager.script = xmldoc("../scenarios/tenMsPathChange/twoFlows/75-75ms.xml")

[Config TwoFlows1ms50msTenMsPathChangeNonCongestiveLoss]
extends = General

**.numberOfFlows = 2

*.client[0].app[0].connectAddress = "server[0]"
*.client[0].app[0].tOpen = 0s
*.client[0].app[0].tSend = 0s

*.client[*].app[0].connectAddress = "server[" + string(parentIndex()) +"]"
*.client[*].app[0].tOpen = 0s
*.client[*].app[0].tSend = uniform(0s,5s)

**.ppp[*].queue.packetCapacity = 706

*.scenarioManager.script = xmldoc("../scenarios/tenMsPathChange/twoFlows/1-50ms.xml")

[Config TwoFlows25ms75msTenMsPathChangeNonCongestiveLoss]
extends = General

**.numberOfFlows = 2

*.client[0].app[0].connectAddress = "server[0]"
*.client[0].app[0].tOpen = 0s
*.client[0].app[0].tSend = 0s

*.client[*].app[0].connectAddress = "server[" + string(parentIndex()) +"]"
*.client[*].app[0].tOpen = 0s
*.client[*].app[0].tSend = uniform(0s,5s)

**.ppp[*].queue.packetCapacity = 1059

*.scenarioManager.script = xmldoc("../scenarios/tenMsPathChange/twoFlows/25-75ms.xml")
