[General]

network = doubledumbbellpathchange
sim-time-limit = 300s
record-eventlog=false
cmdenv-express-mode = true
cmdenv-redirect-output = false
cmdenv-output-file = dctcpLog.txt
**.client*.tcp.conn-8.cmdenv-log-level = detail
cmdenv-log-prefix = %t | %m |


cmdenv-event-banners = false
**.cmdenv-log-level = off

**.**.tcp.conn-*.cwnd:vector(removeRepeats).vector-recording = true
**.**.tcp.conn-*.U:vector(removeRepeats).vector-recording = true
**.**.tcp.conn-*.rtt:vector(removeRepeats).vector-recording = true
**.**.tcp.conn-*.srtt:vector(removeRepeats).vector-recording = true
**.**.tcp.conn-*.**.result-recording-modes = vector(removeRepeats)
**.**.queue.queueLength:vector(removeRepeats).vector-recording = true
**.**.queue.queueLength.**.result-recording-modes = vector(removeRepeats)
**.**.goodput:vector(removeRepeats).vector-recording = true
**.**.goodput.result-recording-modes = vector(removeRepeats)
**.**.throughput:vector(removeRepeats).vector-recording = true
**.**.throughput.result-recording-modes = vector(removeRepeats)
**.**.bandwidth:vector(removeRepeats).vector-recording = true
**.**.bandwidth.result-recording-modes = vector(removeRepeats)
**.**.mbytesInFlight:vector(removeRepeats).vector-recording = true
**.**.mbytesInFlight.result-recording-modes = vector(removeRepeats)
**.scalar-recording=false
**.vector-recording=false
**.bin-recording=false

**.goodputInterval = 1s
**.throughputInterval = 1s
**.tcp.typename = "Orbtcp"
**.tcp.tcpAlgorithmClass = "OrbtcpFlavour"
**.tcp.advertisedWindow = 200000000
**.tcp.windowScalingSupport = true
**.tcp.windowScalingFactor = -1
**.tcp.increasedIWEnabled = true
**.tcp.delayedAcksEnabled = false
**.tcp.timestampSupport = true
**.tcp.ecnWillingness = false
**.tcp.nagleEnabled = true
**.tcp.stopOperationTimeout = 4000s
**.tcp.mss = 1448
**.tcp.sackSupport = true
**.constantClient[*].numApps = 1
**.constantClient[*].app[*].typename  = "TcpGoodputSessionApp"
*.constantClient[*].app[0].tClose = -1s
*.constantClient[*].app[0].sendBytes = 2GB
*.constantClient[*].app[0].dataTransferMode = "bytecount"
*.constantClient[*].app[0].statistic-recording = true

**.constantServer[*].numApps = 1
**.constantServer[*].app[*].typename  = "TcpSinkApp"
**.constantServer[*].app[*].serverThreadModuleType = "tcpgoodputapplications.applications.tcpapp.TcpGoodputSinkAppThread"

**.pathChangeClient[*].numApps = 1
**.pathChangeClient[*].app[*].typename  = "TcpGoodputSessionApp"
*.pathChangeClient[*].app[0].tClose = -1s
*.pathChangeClient[*].app[0].sendBytes = 2GB
*.pathChangeClient[*].app[0].dataTransferMode = "bytecount"
*.pathChangeClient[*].app[0].statistic-recording = true

**.pathChangeServer[*].numApps = 1
**.pathChangeServer[*].app[*].typename  = "TcpSinkApp"
**.pathChangeServer[*].app[*].serverThreadModuleType = "tcpgoodputapplications.applications.tcpapp.TcpGoodputSinkAppThread"

**.constantRouter1.ppp[2].queue.typename = "IntQueue"

**.pathChangeRouter1.ppp[2].queue.typename = "IntQueue"

**.**.queue.typename = "DropTailQueue"

**.additiveIncreasePercent = 0.05
**.eta = 0.95

**.alpha = 0.01
**.fixedAvgRTTVal = 0

**.tcp.initialSsthresh = 579200

*.configurator.config = xml("<config><interface hosts='**' address='10.x.x.x' netmask='255.x.x.x'/><autoroute metric='weight'/></config>")

*.configurator.updateInterval = 100.000001s

*.configurator.optimizeRoutes = false

*.*.forwarding = false

[Config Orbtcp20mslargebufferRun1]
extends = General 

**.numberOfConstantFlows = 2

**.numberOfPathChangeFlows = 2 

*.constantClient[0].app[0].connectAddress =  "constantServer[" + string(parentIndex()) +"]"
*.constantClient[[0].app[0].tOpen = 5.846919251197291s
*.constantClient[0].app[0].tSend = 5.846919251197291s

*.constantClient[1].app[0].connectAddress =  "constantServer[" + string(parentIndex()) +"]"
*.constantClient[[1].app[0].tOpen = 7.115906374595394s
*.constantClient[1].app[0].tSend = 7.115906374595394s

*.pathChangeClient[0].app[0].connectAddress =  "pathChangeServer[" + string(parentIndex()) +"]"
*.pathChangeClient[0].app[0].tOpen = 28.316825441188325s
*.pathChangeClient[0].app[0].tSend = 28.316825441188325s

*.pathChangeClient[1].app[0].connectAddress =  "pathChangeServer[" + string(parentIndex()) +"]"
*.pathChangeClient[1].app[0].tOpen = 46.13397093685743s
*.pathChangeClient[1].app[0].tSend = 46.13397093685743s

**.ppp[*].queue.packetCapacity = 1360

*.scenarioManager.script = xmldoc("../scenarios/experiment3/20ms.xml")

[Config Orbtcp20mslargebufferRun2]
extends = General 

**.numberOfConstantFlows = 2

**.numberOfPathChangeFlows = 2 

*.constantClient[0].app[0].connectAddress =  "constantServer[" + string(parentIndex()) +"]"
*.constantClient[[0].app[0].tOpen = 22.422850895526423s
*.constantClient[0].app[0].tSend = 22.422850895526423s

*.constantClient[1].app[0].connectAddress =  "constantServer[" + string(parentIndex()) +"]"
*.constantClient[[1].app[0].tOpen = 47.35818571170437s
*.constantClient[1].app[0].tSend = 47.35818571170437s

*.pathChangeClient[0].app[0].connectAddress =  "pathChangeServer[" + string(parentIndex()) +"]"
*.pathChangeClient[0].app[0].tOpen = 23.72366635037925s
*.pathChangeClient[0].app[0].tSend = 23.72366635037925s

*.pathChangeClient[1].app[0].connectAddress =  "pathChangeServer[" + string(parentIndex()) +"]"
*.pathChangeClient[1].app[0].tOpen = 38.41164888245342s
*.pathChangeClient[1].app[0].tSend = 38.41164888245342s

**.ppp[*].queue.packetCapacity = 1360

*.scenarioManager.script = xmldoc("../scenarios/experiment3/20ms.xml")

[Config Orbtcp20mslargebufferRun3]
extends = General 

**.numberOfConstantFlows = 2

**.numberOfPathChangeFlows = 2 

*.constantClient[0].app[0].connectAddress =  "constantServer[" + string(parentIndex()) +"]"
*.constantClient[[0].app[0].tOpen = 29.32158821138353s
*.constantClient[0].app[0].tSend = 29.32158821138353s

*.constantClient[1].app[0].connectAddress =  "constantServer[" + string(parentIndex()) +"]"
*.constantClient[[1].app[0].tOpen = 18.12258318197466s
*.constantClient[1].app[0].tSend = 18.12258318197466s

*.pathChangeClient[0].app[0].connectAddress =  "pathChangeServer[" + string(parentIndex()) +"]"
*.pathChangeClient[0].app[0].tOpen = 2.634720164066917s
*.pathChangeClient[0].app[0].tSend = 2.634720164066917s

*.pathChangeClient[1].app[0].connectAddress =  "pathChangeServer[" + string(parentIndex()) +"]"
*.pathChangeClient[1].app[0].tOpen = 32.55712337846987s
*.pathChangeClient[1].app[0].tSend = 32.55712337846987s

**.ppp[*].queue.packetCapacity = 1360

*.scenarioManager.script = xmldoc("../scenarios/experiment3/20ms.xml")

[Config Orbtcp20mslargebufferRun4]
extends = General 

**.numberOfConstantFlows = 2

**.numberOfPathChangeFlows = 2 

*.constantClient[0].app[0].connectAddress =  "constantServer[" + string(parentIndex()) +"]"
*.constantClient[[0].app[0].tOpen = 36.374557018434075s
*.constantClient[0].app[0].tSend = 36.374557018434075s

*.constantClient[1].app[0].connectAddress =  "constantServer[" + string(parentIndex()) +"]"
*.constantClient[[1].app[0].tOpen = 25.01417186989756s
*.constantClient[1].app[0].tSend = 25.01417186989756s

*.pathChangeClient[0].app[0].connectAddress =  "pathChangeServer[" + string(parentIndex()) +"]"
*.pathChangeClient[0].app[0].tOpen = 38.87515352699409s
*.pathChangeClient[0].app[0].tSend = 38.87515352699409s

*.pathChangeClient[1].app[0].connectAddress =  "pathChangeServer[" + string(parentIndex()) +"]"
*.pathChangeClient[1].app[0].tOpen = 28.202862334755626s
*.pathChangeClient[1].app[0].tSend = 28.202862334755626s

**.ppp[*].queue.packetCapacity = 1360

*.scenarioManager.script = xmldoc("../scenarios/experiment3/20ms.xml")

[Config Orbtcp20mslargebufferRun5]
extends = General 

**.numberOfConstantFlows = 2

**.numberOfPathChangeFlows = 2 

*.constantClient[0].app[0].connectAddress =  "constantServer[" + string(parentIndex()) +"]"
*.constantClient[[0].app[0].tOpen = 5.638186154178454s
*.constantClient[0].app[0].tSend = 5.638186154178454s

*.constantClient[1].app[0].connectAddress =  "constantServer[" + string(parentIndex()) +"]"
*.constantClient[[1].app[0].tOpen = 48.246589883468346s
*.constantClient[1].app[0].tSend = 48.246589883468346s

*.pathChangeClient[0].app[0].connectAddress =  "pathChangeServer[" + string(parentIndex()) +"]"
*.pathChangeClient[0].app[0].tOpen = 34.665487789157176s
*.pathChangeClient[0].app[0].tSend = 34.665487789157176s

*.pathChangeClient[1].app[0].connectAddress =  "pathChangeServer[" + string(parentIndex()) +"]"
*.pathChangeClient[1].app[0].tOpen = 14.190298433168513s
*.pathChangeClient[1].app[0].tSend = 14.190298433168513s

**.ppp[*].queue.packetCapacity = 1360

*.scenarioManager.script = xmldoc("../scenarios/experiment3/20ms.xml")

[Config Orbtcp40mslargebufferRun1]
extends = General 

**.numberOfConstantFlows = 2

**.numberOfPathChangeFlows = 2 

*.constantClient[0].app[0].connectAddress =  "constantServer[" + string(parentIndex()) +"]"
*.constantClient[[0].app[0].tOpen = 5.846919251197291s
*.constantClient[0].app[0].tSend = 5.846919251197291s

*.constantClient[1].app[0].connectAddress =  "constantServer[" + string(parentIndex()) +"]"
*.constantClient[[1].app[0].tOpen = 7.115906374595394s
*.constantClient[1].app[0].tSend = 7.115906374595394s

*.pathChangeClient[0].app[0].connectAddress =  "pathChangeServer[" + string(parentIndex()) +"]"
*.pathChangeClient[0].app[0].tOpen = 28.316825441188325s
*.pathChangeClient[0].app[0].tSend = 28.316825441188325s

*.pathChangeClient[1].app[0].connectAddress =  "pathChangeServer[" + string(parentIndex()) +"]"
*.pathChangeClient[1].app[0].tOpen = 46.13397093685743s
*.pathChangeClient[1].app[0].tSend = 46.13397093685743s

**.ppp[*].queue.packetCapacity = 1360

*.scenarioManager.script = xmldoc("../scenarios/experiment3/40ms.xml")

[Config Orbtcp40mslargebufferRun2]
extends = General 

**.numberOfConstantFlows = 2

**.numberOfPathChangeFlows = 2 

*.constantClient[0].app[0].connectAddress =  "constantServer[" + string(parentIndex()) +"]"
*.constantClient[[0].app[0].tOpen = 22.422850895526423s
*.constantClient[0].app[0].tSend = 22.422850895526423s

*.constantClient[1].app[0].connectAddress =  "constantServer[" + string(parentIndex()) +"]"
*.constantClient[[1].app[0].tOpen = 47.35818571170437s
*.constantClient[1].app[0].tSend = 47.35818571170437s

*.pathChangeClient[0].app[0].connectAddress =  "pathChangeServer[" + string(parentIndex()) +"]"
*.pathChangeClient[0].app[0].tOpen = 23.72366635037925s
*.pathChangeClient[0].app[0].tSend = 23.72366635037925s

*.pathChangeClient[1].app[0].connectAddress =  "pathChangeServer[" + string(parentIndex()) +"]"
*.pathChangeClient[1].app[0].tOpen = 38.41164888245342s
*.pathChangeClient[1].app[0].tSend = 38.41164888245342s

**.ppp[*].queue.packetCapacity = 1360

*.scenarioManager.script = xmldoc("../scenarios/experiment3/40ms.xml")

[Config Orbtcp40mslargebufferRun3]
extends = General 

**.numberOfConstantFlows = 2

**.numberOfPathChangeFlows = 2 

*.constantClient[0].app[0].connectAddress =  "constantServer[" + string(parentIndex()) +"]"
*.constantClient[[0].app[0].tOpen = 29.32158821138353s
*.constantClient[0].app[0].tSend = 29.32158821138353s

*.constantClient[1].app[0].connectAddress =  "constantServer[" + string(parentIndex()) +"]"
*.constantClient[[1].app[0].tOpen = 18.12258318197466s
*.constantClient[1].app[0].tSend = 18.12258318197466s

*.pathChangeClient[0].app[0].connectAddress =  "pathChangeServer[" + string(parentIndex()) +"]"
*.pathChangeClient[0].app[0].tOpen = 2.634720164066917s
*.pathChangeClient[0].app[0].tSend = 2.634720164066917s

*.pathChangeClient[1].app[0].connectAddress =  "pathChangeServer[" + string(parentIndex()) +"]"
*.pathChangeClient[1].app[0].tOpen = 32.55712337846987s
*.pathChangeClient[1].app[0].tSend = 32.55712337846987s

**.ppp[*].queue.packetCapacity = 1360

*.scenarioManager.script = xmldoc("../scenarios/experiment3/40ms.xml")

[Config Orbtcp40mslargebufferRun4]
extends = General 

**.numberOfConstantFlows = 2

**.numberOfPathChangeFlows = 2 

*.constantClient[0].app[0].connectAddress =  "constantServer[" + string(parentIndex()) +"]"
*.constantClient[[0].app[0].tOpen = 36.374557018434075s
*.constantClient[0].app[0].tSend = 36.374557018434075s

*.constantClient[1].app[0].connectAddress =  "constantServer[" + string(parentIndex()) +"]"
*.constantClient[[1].app[0].tOpen = 25.01417186989756s
*.constantClient[1].app[0].tSend = 25.01417186989756s

*.pathChangeClient[0].app[0].connectAddress =  "pathChangeServer[" + string(parentIndex()) +"]"
*.pathChangeClient[0].app[0].tOpen = 38.87515352699409s
*.pathChangeClient[0].app[0].tSend = 38.87515352699409s

*.pathChangeClient[1].app[0].connectAddress =  "pathChangeServer[" + string(parentIndex()) +"]"
*.pathChangeClient[1].app[0].tOpen = 28.202862334755626s
*.pathChangeClient[1].app[0].tSend = 28.202862334755626s

**.ppp[*].queue.packetCapacity = 1360

*.scenarioManager.script = xmldoc("../scenarios/experiment3/40ms.xml")

[Config Orbtcp40mslargebufferRun5]
extends = General 

**.numberOfConstantFlows = 2

**.numberOfPathChangeFlows = 2 

*.constantClient[0].app[0].connectAddress =  "constantServer[" + string(parentIndex()) +"]"
*.constantClient[[0].app[0].tOpen = 5.638186154178454s
*.constantClient[0].app[0].tSend = 5.638186154178454s

*.constantClient[1].app[0].connectAddress =  "constantServer[" + string(parentIndex()) +"]"
*.constantClient[[1].app[0].tOpen = 48.246589883468346s
*.constantClient[1].app[0].tSend = 48.246589883468346s

*.pathChangeClient[0].app[0].connectAddress =  "pathChangeServer[" + string(parentIndex()) +"]"
*.pathChangeClient[0].app[0].tOpen = 34.665487789157176s
*.pathChangeClient[0].app[0].tSend = 34.665487789157176s

*.pathChangeClient[1].app[0].connectAddress =  "pathChangeServer[" + string(parentIndex()) +"]"
*.pathChangeClient[1].app[0].tOpen = 14.190298433168513s
*.pathChangeClient[1].app[0].tSend = 14.190298433168513s

**.ppp[*].queue.packetCapacity = 1360

*.scenarioManager.script = xmldoc("../scenarios/experiment3/40ms.xml")

[Config Orbtcp80mslargebufferRun1]
extends = General 

**.numberOfConstantFlows = 2

**.numberOfPathChangeFlows = 2 

*.constantClient[0].app[0].connectAddress =  "constantServer[" + string(parentIndex()) +"]"
*.constantClient[[0].app[0].tOpen = 5.846919251197291s
*.constantClient[0].app[0].tSend = 5.846919251197291s

*.constantClient[1].app[0].connectAddress =  "constantServer[" + string(parentIndex()) +"]"
*.constantClient[[1].app[0].tOpen = 7.115906374595394s
*.constantClient[1].app[0].tSend = 7.115906374595394s

*.pathChangeClient[0].app[0].connectAddress =  "pathChangeServer[" + string(parentIndex()) +"]"
*.pathChangeClient[0].app[0].tOpen = 28.316825441188325s
*.pathChangeClient[0].app[0].tSend = 28.316825441188325s

*.pathChangeClient[1].app[0].connectAddress =  "pathChangeServer[" + string(parentIndex()) +"]"
*.pathChangeClient[1].app[0].tOpen = 46.13397093685743s
*.pathChangeClient[1].app[0].tSend = 46.13397093685743s

**.ppp[*].queue.packetCapacity = 1360

*.scenarioManager.script = xmldoc("../scenarios/experiment3/80ms.xml")

[Config Orbtcp80mslargebufferRun2]
extends = General 

**.numberOfConstantFlows = 2

**.numberOfPathChangeFlows = 2 

*.constantClient[0].app[0].connectAddress =  "constantServer[" + string(parentIndex()) +"]"
*.constantClient[[0].app[0].tOpen = 22.422850895526423s
*.constantClient[0].app[0].tSend = 22.422850895526423s

*.constantClient[1].app[0].connectAddress =  "constantServer[" + string(parentIndex()) +"]"
*.constantClient[[1].app[0].tOpen = 47.35818571170437s
*.constantClient[1].app[0].tSend = 47.35818571170437s

*.pathChangeClient[0].app[0].connectAddress =  "pathChangeServer[" + string(parentIndex()) +"]"
*.pathChangeClient[0].app[0].tOpen = 23.72366635037925s
*.pathChangeClient[0].app[0].tSend = 23.72366635037925s

*.pathChangeClient[1].app[0].connectAddress =  "pathChangeServer[" + string(parentIndex()) +"]"
*.pathChangeClient[1].app[0].tOpen = 38.41164888245342s
*.pathChangeClient[1].app[0].tSend = 38.41164888245342s

**.ppp[*].queue.packetCapacity = 1360

*.scenarioManager.script = xmldoc("../scenarios/experiment3/80ms.xml")

[Config Orbtcp80mslargebufferRun3]
extends = General 

**.numberOfConstantFlows = 2

**.numberOfPathChangeFlows = 2 

*.constantClient[0].app[0].connectAddress =  "constantServer[" + string(parentIndex()) +"]"
*.constantClient[[0].app[0].tOpen = 29.32158821138353s
*.constantClient[0].app[0].tSend = 29.32158821138353s

*.constantClient[1].app[0].connectAddress =  "constantServer[" + string(parentIndex()) +"]"
*.constantClient[[1].app[0].tOpen = 18.12258318197466s
*.constantClient[1].app[0].tSend = 18.12258318197466s

*.pathChangeClient[0].app[0].connectAddress =  "pathChangeServer[" + string(parentIndex()) +"]"
*.pathChangeClient[0].app[0].tOpen = 2.634720164066917s
*.pathChangeClient[0].app[0].tSend = 2.634720164066917s

*.pathChangeClient[1].app[0].connectAddress =  "pathChangeServer[" + string(parentIndex()) +"]"
*.pathChangeClient[1].app[0].tOpen = 32.55712337846987s
*.pathChangeClient[1].app[0].tSend = 32.55712337846987s

**.ppp[*].queue.packetCapacity = 1360

*.scenarioManager.script = xmldoc("../scenarios/experiment3/80ms.xml")

[Config Orbtcp80mslargebufferRun4]
extends = General 

**.numberOfConstantFlows = 2

**.numberOfPathChangeFlows = 2 

*.constantClient[0].app[0].connectAddress =  "constantServer[" + string(parentIndex()) +"]"
*.constantClient[[0].app[0].tOpen = 36.374557018434075s
*.constantClient[0].app[0].tSend = 36.374557018434075s

*.constantClient[1].app[0].connectAddress =  "constantServer[" + string(parentIndex()) +"]"
*.constantClient[[1].app[0].tOpen = 25.01417186989756s
*.constantClient[1].app[0].tSend = 25.01417186989756s

*.pathChangeClient[0].app[0].connectAddress =  "pathChangeServer[" + string(parentIndex()) +"]"
*.pathChangeClient[0].app[0].tOpen = 38.87515352699409s
*.pathChangeClient[0].app[0].tSend = 38.87515352699409s

*.pathChangeClient[1].app[0].connectAddress =  "pathChangeServer[" + string(parentIndex()) +"]"
*.pathChangeClient[1].app[0].tOpen = 28.202862334755626s
*.pathChangeClient[1].app[0].tSend = 28.202862334755626s

**.ppp[*].queue.packetCapacity = 1360

*.scenarioManager.script = xmldoc("../scenarios/experiment3/80ms.xml")

[Config Orbtcp80mslargebufferRun5]
extends = General 

**.numberOfConstantFlows = 2

**.numberOfPathChangeFlows = 2 

*.constantClient[0].app[0].connectAddress =  "constantServer[" + string(parentIndex()) +"]"
*.constantClient[[0].app[0].tOpen = 5.638186154178454s
*.constantClient[0].app[0].tSend = 5.638186154178454s

*.constantClient[1].app[0].connectAddress =  "constantServer[" + string(parentIndex()) +"]"
*.constantClient[[1].app[0].tOpen = 48.246589883468346s
*.constantClient[1].app[0].tSend = 48.246589883468346s

*.pathChangeClient[0].app[0].connectAddress =  "pathChangeServer[" + string(parentIndex()) +"]"
*.pathChangeClient[0].app[0].tOpen = 34.665487789157176s
*.pathChangeClient[0].app[0].tSend = 34.665487789157176s

*.pathChangeClient[1].app[0].connectAddress =  "pathChangeServer[" + string(parentIndex()) +"]"
*.pathChangeClient[1].app[0].tOpen = 14.190298433168513s
*.pathChangeClient[1].app[0].tSend = 14.190298433168513s

**.ppp[*].queue.packetCapacity = 1360

*.scenarioManager.script = xmldoc("../scenarios/experiment3/80ms.xml")

[Config Orbtcp60mslargebufferRun1]
extends = General 

**.numberOfConstantFlows = 2

**.numberOfPathChangeFlows = 2 

*.constantClient[0].app[0].connectAddress =  "constantServer[" + string(parentIndex()) +"]"
*.constantClient[[0].app[0].tOpen = 5.846919251197291s
*.constantClient[0].app[0].tSend = 5.846919251197291s

*.constantClient[1].app[0].connectAddress =  "constantServer[" + string(parentIndex()) +"]"
*.constantClient[[1].app[0].tOpen = 7.115906374595394s
*.constantClient[1].app[0].tSend = 7.115906374595394s

*.pathChangeClient[0].app[0].connectAddress =  "pathChangeServer[" + string(parentIndex()) +"]"
*.pathChangeClient[0].app[0].tOpen = 28.316825441188325s
*.pathChangeClient[0].app[0].tSend = 28.316825441188325s

*.pathChangeClient[1].app[0].connectAddress =  "pathChangeServer[" + string(parentIndex()) +"]"
*.pathChangeClient[1].app[0].tOpen = 46.13397093685743s
*.pathChangeClient[1].app[0].tSend = 46.13397093685743s

**.ppp[*].queue.packetCapacity = 1360

*.scenarioManager.script = xmldoc("../scenarios/experiment3/60ms.xml")

[Config Orbtcp60mslargebufferRun2]
extends = General 

**.numberOfConstantFlows = 2

**.numberOfPathChangeFlows = 2 

*.constantClient[0].app[0].connectAddress =  "constantServer[" + string(parentIndex()) +"]"
*.constantClient[[0].app[0].tOpen = 22.422850895526423s
*.constantClient[0].app[0].tSend = 22.422850895526423s

*.constantClient[1].app[0].connectAddress =  "constantServer[" + string(parentIndex()) +"]"
*.constantClient[[1].app[0].tOpen = 47.35818571170437s
*.constantClient[1].app[0].tSend = 47.35818571170437s

*.pathChangeClient[0].app[0].connectAddress =  "pathChangeServer[" + string(parentIndex()) +"]"
*.pathChangeClient[0].app[0].tOpen = 23.72366635037925s
*.pathChangeClient[0].app[0].tSend = 23.72366635037925s

*.pathChangeClient[1].app[0].connectAddress =  "pathChangeServer[" + string(parentIndex()) +"]"
*.pathChangeClient[1].app[0].tOpen = 38.41164888245342s
*.pathChangeClient[1].app[0].tSend = 38.41164888245342s

**.ppp[*].queue.packetCapacity = 1360

*.scenarioManager.script = xmldoc("../scenarios/experiment3/60ms.xml")

[Config Orbtcp60mslargebufferRun3]
extends = General 

**.numberOfConstantFlows = 2

**.numberOfPathChangeFlows = 2 

*.constantClient[0].app[0].connectAddress =  "constantServer[" + string(parentIndex()) +"]"
*.constantClient[[0].app[0].tOpen = 29.32158821138353s
*.constantClient[0].app[0].tSend = 29.32158821138353s

*.constantClient[1].app[0].connectAddress =  "constantServer[" + string(parentIndex()) +"]"
*.constantClient[[1].app[0].tOpen = 18.12258318197466s
*.constantClient[1].app[0].tSend = 18.12258318197466s

*.pathChangeClient[0].app[0].connectAddress =  "pathChangeServer[" + string(parentIndex()) +"]"
*.pathChangeClient[0].app[0].tOpen = 2.634720164066917s
*.pathChangeClient[0].app[0].tSend = 2.634720164066917s

*.pathChangeClient[1].app[0].connectAddress =  "pathChangeServer[" + string(parentIndex()) +"]"
*.pathChangeClient[1].app[0].tOpen = 32.55712337846987s
*.pathChangeClient[1].app[0].tSend = 32.55712337846987s

**.ppp[*].queue.packetCapacity = 1360

*.scenarioManager.script = xmldoc("../scenarios/experiment3/60ms.xml")

[Config Orbtcp60mslargebufferRun4]
extends = General 

**.numberOfConstantFlows = 2

**.numberOfPathChangeFlows = 2 

*.constantClient[0].app[0].connectAddress =  "constantServer[" + string(parentIndex()) +"]"
*.constantClient[[0].app[0].tOpen = 36.374557018434075s
*.constantClient[0].app[0].tSend = 36.374557018434075s

*.constantClient[1].app[0].connectAddress =  "constantServer[" + string(parentIndex()) +"]"
*.constantClient[[1].app[0].tOpen = 25.01417186989756s
*.constantClient[1].app[0].tSend = 25.01417186989756s

*.pathChangeClient[0].app[0].connectAddress =  "pathChangeServer[" + string(parentIndex()) +"]"
*.pathChangeClient[0].app[0].tOpen = 38.87515352699409s
*.pathChangeClient[0].app[0].tSend = 38.87515352699409s

*.pathChangeClient[1].app[0].connectAddress =  "pathChangeServer[" + string(parentIndex()) +"]"
*.pathChangeClient[1].app[0].tOpen = 28.202862334755626s
*.pathChangeClient[1].app[0].tSend = 28.202862334755626s

**.ppp[*].queue.packetCapacity = 1360

*.scenarioManager.script = xmldoc("../scenarios/experiment3/60ms.xml")

[Config Orbtcp60mslargebufferRun5]
extends = General 

**.numberOfConstantFlows = 2

**.numberOfPathChangeFlows = 2 

*.constantClient[0].app[0].connectAddress =  "constantServer[" + string(parentIndex()) +"]"
*.constantClient[[0].app[0].tOpen = 5.638186154178454s
*.constantClient[0].app[0].tSend = 5.638186154178454s

*.constantClient[1].app[0].connectAddress =  "constantServer[" + string(parentIndex()) +"]"
*.constantClient[[1].app[0].tOpen = 48.246589883468346s
*.constantClient[1].app[0].tSend = 48.246589883468346s

*.pathChangeClient[0].app[0].connectAddress =  "pathChangeServer[" + string(parentIndex()) +"]"
*.pathChangeClient[0].app[0].tOpen = 34.665487789157176s
*.pathChangeClient[0].app[0].tSend = 34.665487789157176s

*.pathChangeClient[1].app[0].connectAddress =  "pathChangeServer[" + string(parentIndex()) +"]"
*.pathChangeClient[1].app[0].tOpen = 14.190298433168513s
*.pathChangeClient[1].app[0].tSend = 14.190298433168513s

**.ppp[*].queue.packetCapacity = 1360

*.scenarioManager.script = xmldoc("../scenarios/experiment3/60ms.xml")

[Config Orbtcp30mslargebufferRun1]
extends = General 

**.numberOfConstantFlows = 2

**.numberOfPathChangeFlows = 2 

*.constantClient[0].app[0].connectAddress =  "constantServer[" + string(parentIndex()) +"]"
*.constantClient[[0].app[0].tOpen = 5.846919251197291s
*.constantClient[0].app[0].tSend = 5.846919251197291s

*.constantClient[1].app[0].connectAddress =  "constantServer[" + string(parentIndex()) +"]"
*.constantClient[[1].app[0].tOpen = 7.115906374595394s
*.constantClient[1].app[0].tSend = 7.115906374595394s

*.pathChangeClient[0].app[0].connectAddress =  "pathChangeServer[" + string(parentIndex()) +"]"
*.pathChangeClient[0].app[0].tOpen = 28.316825441188325s
*.pathChangeClient[0].app[0].tSend = 28.316825441188325s

*.pathChangeClient[1].app[0].connectAddress =  "pathChangeServer[" + string(parentIndex()) +"]"
*.pathChangeClient[1].app[0].tOpen = 46.13397093685743s
*.pathChangeClient[1].app[0].tSend = 46.13397093685743s

**.ppp[*].queue.packetCapacity = 1360

*.scenarioManager.script = xmldoc("../scenarios/experiment3/30ms.xml")

[Config Orbtcp30mslargebufferRun2]
extends = General 

**.numberOfConstantFlows = 2

**.numberOfPathChangeFlows = 2 

*.constantClient[0].app[0].connectAddress =  "constantServer[" + string(parentIndex()) +"]"
*.constantClient[[0].app[0].tOpen = 22.422850895526423s
*.constantClient[0].app[0].tSend = 22.422850895526423s

*.constantClient[1].app[0].connectAddress =  "constantServer[" + string(parentIndex()) +"]"
*.constantClient[[1].app[0].tOpen = 47.35818571170437s
*.constantClient[1].app[0].tSend = 47.35818571170437s

*.pathChangeClient[0].app[0].connectAddress =  "pathChangeServer[" + string(parentIndex()) +"]"
*.pathChangeClient[0].app[0].tOpen = 23.72366635037925s
*.pathChangeClient[0].app[0].tSend = 23.72366635037925s

*.pathChangeClient[1].app[0].connectAddress =  "pathChangeServer[" + string(parentIndex()) +"]"
*.pathChangeClient[1].app[0].tOpen = 38.41164888245342s
*.pathChangeClient[1].app[0].tSend = 38.41164888245342s

**.ppp[*].queue.packetCapacity = 1360

*.scenarioManager.script = xmldoc("../scenarios/experiment3/30ms.xml")

[Config Orbtcp30mslargebufferRun3]
extends = General 

**.numberOfConstantFlows = 2

**.numberOfPathChangeFlows = 2 

*.constantClient[0].app[0].connectAddress =  "constantServer[" + string(parentIndex()) +"]"
*.constantClient[[0].app[0].tOpen = 29.32158821138353s
*.constantClient[0].app[0].tSend = 29.32158821138353s

*.constantClient[1].app[0].connectAddress =  "constantServer[" + string(parentIndex()) +"]"
*.constantClient[[1].app[0].tOpen = 18.12258318197466s
*.constantClient[1].app[0].tSend = 18.12258318197466s

*.pathChangeClient[0].app[0].connectAddress =  "pathChangeServer[" + string(parentIndex()) +"]"
*.pathChangeClient[0].app[0].tOpen = 2.634720164066917s
*.pathChangeClient[0].app[0].tSend = 2.634720164066917s

*.pathChangeClient[1].app[0].connectAddress =  "pathChangeServer[" + string(parentIndex()) +"]"
*.pathChangeClient[1].app[0].tOpen = 32.55712337846987s
*.pathChangeClient[1].app[0].tSend = 32.55712337846987s

**.ppp[*].queue.packetCapacity = 1360

*.scenarioManager.script = xmldoc("../scenarios/experiment3/30ms.xml")

[Config Orbtcp30mslargebufferRun4]
extends = General 

**.numberOfConstantFlows = 2

**.numberOfPathChangeFlows = 2 

*.constantClient[0].app[0].connectAddress =  "constantServer[" + string(parentIndex()) +"]"
*.constantClient[[0].app[0].tOpen = 36.374557018434075s
*.constantClient[0].app[0].tSend = 36.374557018434075s

*.constantClient[1].app[0].connectAddress =  "constantServer[" + string(parentIndex()) +"]"
*.constantClient[[1].app[0].tOpen = 25.01417186989756s
*.constantClient[1].app[0].tSend = 25.01417186989756s

*.pathChangeClient[0].app[0].connectAddress =  "pathChangeServer[" + string(parentIndex()) +"]"
*.pathChangeClient[0].app[0].tOpen = 38.87515352699409s
*.pathChangeClient[0].app[0].tSend = 38.87515352699409s

*.pathChangeClient[1].app[0].connectAddress =  "pathChangeServer[" + string(parentIndex()) +"]"
*.pathChangeClient[1].app[0].tOpen = 28.202862334755626s
*.pathChangeClient[1].app[0].tSend = 28.202862334755626s

**.ppp[*].queue.packetCapacity = 1360

*.scenarioManager.script = xmldoc("../scenarios/experiment3/30ms.xml")

[Config Orbtcp30mslargebufferRun5]
extends = General 

**.numberOfConstantFlows = 2

**.numberOfPathChangeFlows = 2 

*.constantClient[0].app[0].connectAddress =  "constantServer[" + string(parentIndex()) +"]"
*.constantClient[[0].app[0].tOpen = 5.638186154178454s
*.constantClient[0].app[0].tSend = 5.638186154178454s

*.constantClient[1].app[0].connectAddress =  "constantServer[" + string(parentIndex()) +"]"
*.constantClient[[1].app[0].tOpen = 48.246589883468346s
*.constantClient[1].app[0].tSend = 48.246589883468346s

*.pathChangeClient[0].app[0].connectAddress =  "pathChangeServer[" + string(parentIndex()) +"]"
*.pathChangeClient[0].app[0].tOpen = 34.665487789157176s
*.pathChangeClient[0].app[0].tSend = 34.665487789157176s

*.pathChangeClient[1].app[0].connectAddress =  "pathChangeServer[" + string(parentIndex()) +"]"
*.pathChangeClient[1].app[0].tOpen = 14.190298433168513s
*.pathChangeClient[1].app[0].tSend = 14.190298433168513s

**.ppp[*].queue.packetCapacity = 1360

*.scenarioManager.script = xmldoc("../scenarios/experiment3/30ms.xml")

[Config Orbtcp10mslargebufferRun1]
extends = General 

**.numberOfConstantFlows = 2

**.numberOfPathChangeFlows = 2 

*.constantClient[0].app[0].connectAddress =  "constantServer[" + string(parentIndex()) +"]"
*.constantClient[[0].app[0].tOpen = 5.846919251197291s