[General]

network = singledumbbell
sim-time-limit = 300s
record-eventlog=false
cmdenv-express-mode = true
cmdenv-redirect-output = false
cmdenv-output-file = dctcpLog.txt
**.client*.tcp.conn-8.cmdenv-log-level = detail
cmdenv-log-prefix = %t | %m |


cmdenv-event-banners = false
**.cmdenv-log-level = off

**.**.tcp.conn-*.cwnd:vector(removeRepeats).vector-recording = true
**.**.tcp.conn-*.U:vector(removeRepeats).vector-recording = true
**.**.tcp.conn-*.rtt:vector(removeRepeats).vector-recording = true
**.**.tcp.conn-*.srtt:vector(removeRepeats).vector-recording = true
**.**.queue.queueLength:vector(removeRepeats).vector-recording = true
**.**.goodput:vector(removeRepeats).vector-recording = true
**.**.throughput:vector(removeRepeats).vector-recording = true
**.**.bandwidth:vector(removeRepeats).vector-recording = true
**.**.mbytesInFlight:vector(removeRepeats).vector-recording = true
**.scalar-recording=false
**.vector-recording=false
**.bin-recording=false

**.goodputInterval = 1s
**.throughputInterval = 1s
**.**.tcp.conn-*.**.result-recording-modes = vector(removeRepeats)
**.**.queue.queueLength.result-recording-modes = vector(removeRepeats)
**.**.goodput.result-recording-modes = vector(removeRepeats)
**.**.throughput.result-recording-modes = vector(removeRepeats)
**.**.mbytesInFlight.result-recording-modes = vector(removeRepeats)
**.tcp.typename = "Orbtcp"
**.tcp.tcpAlgorithmClass = "OrbtcpFlavour"
**.tcp.advertisedWindow = 200000000
**.tcp.windowScalingSupport = true
**.tcp.windowScalingFactor = -1
**.tcp.increasedIWEnabled = true
**.tcp.delayedAcksEnabled = false
**.tcp.timestampSupport = true
**.tcp.ecnWillingness = false
**.tcp.nagleEnabled = true
**.tcp.stopOperationTimeout = 4000s
**.tcp.mss = 1448
**.tcp.sackSupport = true
**.client[*].numApps = 1
**.client[*].app[*].typename  = "TcpGoodputSessionApp"
*.client[*].app[0].tClose = -1s
*.client[*].app[0].sendBytes = 2GB
*.client[*].app[0].dataTransferMode = "bytecount"
*.client[*].app[0].statistic-recording = true

**.server[*].numApps = 1
**.server[*].app[*].typename  = "TcpSinkApp"
**.server[*].app[*].serverThreadModuleType = "tcpgoodputapplications.applications.tcpapp.TcpGoodputSinkAppThread"

**.router1.ppp[1].queue.typename = "IntQueue"

**.**.queue.typename = "DropTailQueue"

**.additiveIncreasePercent = 0.05
**.eta = 0.95

**.alpha = 0.01
**.fixedAvgRTTVal = 0

**.tcp.initialSsthresh = 579200

[Config OrbtcpRun21]
extends = General 

**.numberOfFlows = 1 

*.client[0].app[0].connectAddress = "server[0]"
*.client[0].app[0].tOpen = 0s
*.client[0].app[0].tSend = 0s

**.ppp[*].queue.packetCapacity = 452

*.scenarioManager.script = xmldoc("../scenarios/experiment1/run21.xml")

[Config OrbtcpRun35]
extends = General 

**.numberOfFlows = 1 

*.client[0].app[0].connectAddress = "server[0]"
*.client[0].app[0].tOpen = 0s
*.client[0].app[0].tSend = 0s

**.ppp[*].queue.packetCapacity = 452

*.scenarioManager.script = xmldoc("../scenarios/experiment1/run35.xml")

[Config OrbtcpRun34]
extends = General 

**.numberOfFlows = 1 

*.client[0].app[0].connectAddress = "server[0]"
*.client[0].app[0].tOpen = 0s
*.client[0].app[0].tSend = 0s

**.ppp[*].queue.packetCapacity = 452

*.scenarioManager.script = xmldoc("../scenarios/experiment1/run34.xml")

[Config OrbtcpRun20]
extends = General 

**.numberOfFlows = 1 

*.client[0].app[0].connectAddress = "server[0]"
*.client[0].app[0].tOpen = 0s
*.client[0].app[0].tSend = 0s

**.ppp[*].queue.packetCapacity = 452

*.scenarioManager.script = xmldoc("../scenarios/experiment1/run20.xml")

[Config OrbtcpRun36]
extends = General 

**.numberOfFlows = 1 

*.client[0].app[0].connectAddress = "server[0]"
*.client[0].app[0].tOpen = 0s
*.client[0].app[0].tSend = 0s

**.ppp[*].queue.packetCapacity = 452

*.scenarioManager.script = xmldoc("../scenarios/experiment1/run36.xml")

[Config OrbtcpRun22]
extends = General 

**.numberOfFlows = 1 

*.client[0].app[0].connectAddress = "server[0]"
*.client[0].app[0].tOpen = 0s
*.client[0].app[0].tSend = 0s

**.ppp[*].queue.packetCapacity = 452

*.scenarioManager.script = xmldoc("../scenarios/experiment1/run22.xml")

[Config OrbtcpRun23]
extends = General 

**.numberOfFlows = 1 

*.client[0].app[0].connectAddress = "server[0]"
*.client[0].app[0].tOpen = 0s
*.client[0].app[0].tSend = 0s

**.ppp[*].queue.packetCapacity = 452

*.scenarioManager.script = xmldoc("../scenarios/experiment1/run23.xml")

[Config OrbtcpRun37]
extends = General 

**.numberOfFlows = 1 

*.client[0].app[0].connectAddress = "server[0]"
*.client[0].app[0].tOpen = 0s
*.client[0].app[0].tSend = 0s

**.ppp[*].queue.packetCapacity = 452

*.scenarioManager.script = xmldoc("../scenarios/experiment1/run37.xml")

[Config OrbtcpRun8]
extends = General 

**.numberOfFlows = 1 

*.client[0].app[0].connectAddress = "server[0]"
*.client[0].app[0].tOpen = 0s
*.client[0].app[0].tSend = 0s

**.ppp[*].queue.packetCapacity = 452

*.scenarioManager.script = xmldoc("../scenarios/experiment1/run8.xml")

[Config OrbtcpRun33]
extends = General 

**.numberOfFlows = 1 

*.client[0].app[0].connectAddress = "server[0]"
*.client[0].app[0].tOpen = 0s
*.client[0].app[0].tSend = 0s

**.ppp[*].queue.packetCapacity = 452

*.scenarioManager.script = xmldoc("../scenarios/experiment1/run33.xml")

[Config OrbtcpRun27]
extends = General 

**.numberOfFlows = 1 

*.client[0].app[0].connectAddress = "server[0]"
*.client[0].app[0].tOpen = 0s
*.client[0].app[0].tSend = 0s

**.ppp[*].queue.packetCapacity = 452

*.scenarioManager.script = xmldoc("../scenarios/experiment1/run27.xml")

[Config OrbtcpRun26]
extends = General 

**.numberOfFlows = 1 

*.client[0].app[0].connectAddress = "server[0]"
*.client[0].app[0].tOpen = 0s
*.client[0].app[0].tSend = 0s

**.ppp[*].queue.packetCapacity = 452

*.scenarioManager.script = xmldoc("../scenarios/experiment1/run26.xml")

[Config OrbtcpRun32]
extends = General 

**.numberOfFlows = 1 

*.client[0].app[0].connectAddress = "server[0]"
*.client[0].app[0].tOpen = 0s
*.client[0].app[0].tSend = 0s

**.ppp[*].queue.packetCapacity = 452

*.scenarioManager.script = xmldoc("../scenarios/experiment1/run32.xml")

[Config OrbtcpRun9]
extends = General 

**.numberOfFlows = 1 

*.client[0].app[0].connectAddress = "server[0]"
*.client[0].app[0].tOpen = 0s
*.client[0].app[0].tSend = 0s

**.ppp[*].queue.packetCapacity = 452

*.scenarioManager.script = xmldoc("../scenarios/experiment1/run9.xml")

[Config OrbtcpRun18]
extends = General 

**.numberOfFlows = 1 

*.client[0].app[0].connectAddress = "server[0]"
*.client[0].app[0].tOpen = 0s
*.client[0].app[0].tSend = 0s

**.ppp[*].queue.packetCapacity = 452

*.scenarioManager.script = xmldoc("../scenarios/experiment1/run18.xml")

[Config OrbtcpRun24]
extends = General 

**.numberOfFlows = 1 

*.client[0].app[0].connectAddress = "server[0]"
*.client[0].app[0].tOpen = 0s
*.client[0].app[0].tSend = 0s

**.ppp[*].queue.packetCapacity = 452

*.scenarioManager.script = xmldoc("../scenarios/experiment1/run24.xml")

[Config OrbtcpRun30]
extends = General 

**.numberOfFlows = 1 

*.client[0].app[0].connectAddress = "server[0]"
*.client[0].app[0].tOpen = 0s
*.client[0].app[0].tSend = 0s

**.ppp[*].queue.packetCapacity = 452

*.scenarioManager.script = xmldoc("../scenarios/experiment1/run30.xml")

[Config OrbtcpRun31]
extends = General 

**.numberOfFlows = 1 

*.client[0].app[0].connectAddress = "server[0]"
*.client[0].app[0].tOpen = 0s
*.client[0].app[0].tSend = 0s

**.ppp[*].queue.packetCapacity = 452

*.scenarioManager.script = xmldoc("../scenarios/experiment1/run31.xml")

[Config OrbtcpRun25]
extends = General 

**.numberOfFlows = 1 

*.client[0].app[0].connectAddress = "server[0]"
*.client[0].app[0].tOpen = 0s
*.client[0].app[0].tSend = 0s

**.ppp[*].queue.packetCapacity = 452

*.scenarioManager.script = xmldoc("../scenarios/experiment1/run25.xml")

[Config OrbtcpRun19]
extends = General 

**.numberOfFlows = 1 

*.client[0].app[0].connectAddress = "server[0]"
*.client[0].app[0].tOpen = 0s
*.client[0].app[0].tSend = 0s

**.ppp[*].queue.packetCapacity = 452

*.scenarioManager.script = xmldoc("../scenarios/experiment1/run19.xml")

[Config OrbtcpRun42]
extends = General 

**.numberOfFlows = 1 

*.client[0].app[0].connectAddress = "server[0]"
*.client[0].app[0].tOpen = 0s
*.client[0].app[0].tSend = 0s

**.ppp[*].queue.packetCapacity = 452

*.scenarioManager.script = xmldoc("../scenarios/experiment1/run42.xml")

[Config OrbtcpRun43]
extends = General 

**.numberOfFlows = 1 

*.client[0].app[0].connectAddress = "server[0]"
*.client[0].app[0].tOpen = 0s
*.client[0].app[0].tSend = 0s

**.ppp[*].queue.packetCapacity = 452

*.scenarioManager.script = xmldoc("../scenarios/experiment1/run43.xml")

[Config OrbtcpRun41]
extends = General 

**.numberOfFlows = 1 

*.client[0].app[0].connectAddress = "server[0]"
*.client[0].app[0].tOpen = 0s
*.client[0].app[0].tSend = 0s

**.ppp[*].queue.packetCapacity = 452

*.scenarioManager.script = xmldoc("../scenarios/experiment1/run41.xml")

[Config OrbtcpRun40]
extends = General 

**.numberOfFlows = 1 

*.client[0].app[0].connectAddress = "server[0]"
*.client[0].app[0].tOpen = 0s
*.client[0].app[0].tSend = 0s

**.ppp[*].queue.packetCapacity = 452

*.scenarioManager.script = xmldoc("../scenarios/experiment1/run40.xml")

[Config OrbtcpRun50]
extends = General 

**.numberOfFlows = 1 

*.client[0].app[0].connectAddress = "server[0]"
*.client[0].app[0].tOpen = 0s
*.client[0].app[0].tSend = 0s

**.ppp[*].queue.packetCapacity = 452

*.scenarioManager.script = xmldoc("../scenarios/experiment1/run50.xml")

[Config OrbtcpRun44]
extends = General 

**.numberOfFlows = 1 

*.client[0].app[0].connectAddress = "server[0]"
*.client[0].app[0].tOpen = 0s
*.client[0].app[0].tSend = 0s

**.ppp[*].queue.packetCapacity = 452

*.scenarioManager.script = xmldoc("../scenarios/experiment1/run44.xml")

[Config OrbtcpRun45]
extends = General 

**.numberOfFlows = 1 

*.client[0].app[0].connectAddress = "server[0]"
*.client[0].app[0].tOpen = 0s
*.client[0].app[0].tSend = 0s

**.ppp[*].queue.packetCapacity = 452

*.scenarioManager.script = xmldoc("../scenarios/experiment1/run45.xml")

[Config OrbtcpRun47]
extends = General 

**.numberOfFlows = 1 

*.client[0].app[0].connectAddress = "server[0]"
*.client[0].app[0].tOpen = 0s
*.client[0].app[0].tSend = 0s

**.ppp[*].queue.packetCapacity = 452

*.scenarioManager.script = xmldoc("../scenarios/experiment1/run47.xml")

[Config OrbtcpRun46]
extends = General 

**.numberOfFlows = 1 

*.client[0].app[0].connectAddress = "server[0]"
*.client[0].app[0].tOpen = 0s
*.client[0].app[0].tSend = 0s

**.ppp[*].queue.packetCapacity = 452

*.scenarioManager.script = xmldoc("../scenarios/experiment1/run46.xml")

[Config OrbtcpRun48]
extends = General 

**.numberOfFlows = 1 

*.client[0].app[0].connectAddress = "server[0]"
*.client[0].app[0].tOpen = 0s
*.client[0].app[0].tSend = 0s

**.ppp[*].queue.packetCapacity = 452

*.scenarioManager.script = xmldoc("../scenarios/experiment1/run48.xml")

[Config OrbtcpRun49]
extends = General 

**.numberOfFlows = 1 

*.client[0].app[0].connectAddress = "server[0]"
*.client[0].app[0].tOpen = 0s
*.client[0].app[0].tSend = 0s

**.ppp[*].queue.packetCapacity = 452

*.scenarioManager.script = xmldoc("../scenarios/experiment1/run49.xml")

[Config OrbtcpRun7]
extends = General 

**.numberOfFlows = 1 

*.client[0].app[0].connectAddress = "server[0]"
*.client[0].app[0].tOpen = 0s
*.client[0].app[0].tSend = 0s

**.ppp[*].queue.packetCapacity = 452

*.scenarioManager.script = xmldoc("../scenarios/experiment1/run7.xml")

[Config OrbtcpRun14]
extends = General 

**.numberOfFlows = 1 

*.client[0].app[0].connectAddress = "server[0]"
*.client[0].app[0].tOpen = 0s
*.client[0].app[0].tSend = 0s

**.ppp[*].queue.packetCapacity = 452

*.scenarioManager.script = xmldoc("../scenarios/experiment1/run14.xml")

[Config OrbtcpRun28]
extends = General 

**.numberOfFlows = 1 

*.client[0].app[0].connectAddress = "server[0]"
*.client[0].app[0].tOpen = 0s
*.client[0].app[0].tSend = 0s

**.ppp[*].queue.packetCapacity = 452

*.scenarioManager.script = xmldoc("../scenarios/experiment1/run28.xml")

[Config OrbtcpRun29]
extends = General 

**.numberOfFlows = 1 

*.client[0].app[0].connectAddress = "server[0]"
*.client[0].app[0].tOpen = 0s
*.client[0].app[0].tSend = 0s

**.ppp[*].queue.packetCapacity = 452

*.scenarioManager.script = xmldoc("../scenarios/experiment1/run29.xml")

[Config OrbtcpRun15]
extends = General 

**.numberOfFlows = 1 

*.client[0].app[0].connectAddress = "server[0]"
*.client[0].app[0].tOpen = 0s
*.client[0].app[0].tSend = 0s

**.ppp[*].queue.packetCapacity = 452

*.scenarioManager.script = xmldoc("../scenarios/experiment1/run15.xml")

[Config OrbtcpRun6]
extends = General 

**.numberOfFlows = 1 

*.client[0].app[0].connectAddress = "server[0]"
*.client[0].app[0].tOpen = 0s
*.client[0].app[0].tSend = 0s

**.ppp[*].queue.packetCapacity = 452

*.scenarioManager.script = xmldoc("../scenarios/experiment1/run6.xml")

[Config OrbtcpRun4]
extends = General 

**.numberOfFlows = 1 

*.client[0].app[0].connectAddress = "server[0]"
*.client[0].app[0].tOpen = 0s
*.client[0].app[0].tSend = 0s

**.ppp[*].queue.packetCapacity = 452

*.scenarioManager.script = xmldoc("../scenarios/experiment1/run4.xml")

[Config OrbtcpRun17]
extends = General 

**.numberOfFlows = 1 

*.client[0].app[0].connectAddress = "server[0]"
*.client[0].app[0].tOpen = 0s
*.client[0].app[0].tSend = 0s

**.ppp[*].queue.packetCapacity = 452

*.scenarioManager.script = xmldoc("../scenarios/experiment1/run17.xml")

[Config OrbtcpRun16]
extends = General 

**.numberOfFlows = 1 

*.client[0].app[0].connectAddress = "server[0]"
*.client[0].app[0].tOpen = 0s
*.client[0].app[0].tSend = 0s

**.ppp[*].queue.packetCapacity = 452

*.scenarioManager.script = xmldoc("../scenarios/experiment1/run16.xml")

[Config OrbtcpRun5]
extends = General 

**.numberOfFlows = 1 

*.client[0].app[0].connectAddress = "server[0]"
*.client[0].app[0].tOpen = 0s
*.client[0].app[0].tSend = 0s

**.ppp[*].queue.packetCapacity = 452

*.scenarioManager.script = xmldoc("../scenarios/experiment1/run5.xml")

[Config OrbtcpRun1]
extends = General 

**.numberOfFlows = 1 

*.client[0].app[0].connectAddress = "server[0]"
*.client[0].app[0].tOpen = 0s
*.client[0].app[0].tSend = 0s

**.ppp[*].queue.packetCapacity = 452

*.scenarioManager.script = xmldoc("../scenarios/experiment1/run1.xml")

[Config OrbtcpRun12]
extends = General 

**.numberOfFlows = 1 

*.client[0].app[0].connectAddress = "server[0]"
*.client[0].app[0].tOpen = 0s
*.client[0].app[0].tSend = 0s

**.ppp[*].queue.packetCapacity = 452

*.scenarioManager.script = xmldoc("../scenarios/experiment1/run12.xml")

[Config OrbtcpRun13]
extends = General 

**.numberOfFlows = 1 

*.client[0].app[0].connectAddress = "server[0]"
*.client[0].app[0].tOpen = 0s
*.client[0].app[0].tSend = 0s

**.ppp[*].queue.packetCapacity = 452

*.scenarioManager.script = xmldoc("../scenarios/experiment1/run13.xml")

[Config OrbtcpRun2]
extends = General 

**.numberOfFlows = 1 

*.client[0].app[0].connectAddress = "server[0]"
*.client[0].app[0].tOpen = 0s
*.client[0].app[0].tSend = 0s

**.ppp[*].queue.packetCapacity = 452

*.scenarioManager.script = xmldoc("../scenarios/experiment1/run2.xml")

[Config OrbtcpRun39]
extends = General 

**.numberOfFlows = 1 

*.client[0].app[0].connectAddress = "server[0]"
*.client[0].app[0].tOpen = 0s
*.client[0].app[0].tSend = 0s

**.ppp[*].queue.packetCapacity = 452

*.scenarioManager.script = xmldoc("../scenarios/experiment1/run39.xml")

[Config OrbtcpRun11]
extends = General 

**.numberOfFlows = 1 

*.client[0].app[0].connectAddress = "server[0]"
*.client[0].app[0].tOpen = 0s
*.client[0].app[0].tSend = 0s

**.ppp[*].queue.packetCapacity = 452

*.scenarioManager.script = xmldoc("../scenarios/experiment1/run11.xml")

[Config OrbtcpRun10]
extends = General 

**.numberOfFlows = 1 

*.client[0].app[0].connectAddress = "server[0]"
*.client[0].app[0].tOpen = 0s
*.client[0].app[0].tSend = 0s

**.ppp[*].queue.packetCapacity = 452

*.scenarioManager.script = xmldoc("../scenarios/experiment1/run10.xml")

[Config OrbtcpRun38]
extends = General 

**.numberOfFlows = 1 

*.client[0].app[0].connectAddress = "server[0]"
*.client[0].app[0].tOpen = 0s
*.client[0].app[0].tSend = 0s

**.ppp[*].queue.packetCapacity = 452

*.scenarioManager.script = xmldoc("../scenarios/experiment1/run38.xml")

[Config OrbtcpRun3]
extends = General 

**.numberOfFlows = 1 

*.client[0].app[0].connectAddress = "server[0]"
*.client[0].app[0].tOpen = 0s
*.client[0].app[0].tSend = 0s

**.ppp[*].queue.packetCapacity = 452

*.scenarioManager.script = xmldoc("../scenarios/experiment1/run3.xml")
