[General]

network = singledumbbell
sim-time-limit = 300s
record-eventlog=false
cmdenv-express-mode = true
cmdenv-redirect-output = false
cmdenv-output-file = dctcpLog.txt
**.client*.tcp.conn-8.cmdenv-log-level = detail
cmdenv-log-prefix = %t | %m |


cmdenv-event-banners = false
**.cmdenv-log-level = off

**.**.tcp.conn-*.cwnd:vector.vector-recording = true
**.**.tcp.conn-*.U:vector.vector-recording = true
**.**.tcp.conn-*.rtt:vector.vector-recording = true
**.**.tcp.conn-*.srtt:vector.vector-recording = true
**.**.tcp.conn-*.lossRecovery:vector.vector-recording = true
**.**.queue.queueLength:vector.vector-recording = true
**.**.goodput:vector.vector-recording = true
**.**.throughput:vector.vector-recording = true
**.**.bandwidth:vector.vector-recording = true
**.**.mbytesInFlight:vector.vector-recording = true
**.scalar-recording=false
**.vector-recording=false
**.bin-recording=false

**.server[*].app[*].*.thrMeasurementInterval = 1s
**.tcp.typename = "Bbr"
**.tcp.tcpAlgorithmClass = "BbrFlavour"
**.tcp.advertisedWindow = 200000000
**.tcp.windowScalingSupport = true
**.tcp.windowScalingFactor = -1
**.tcp.increasedIWEnabled = true
**.tcp.delayedAcksEnabled = false
**.tcp.timestampSupport = true
**.tcp.ecnWillingness = false
**.tcp.nagleEnabled = true
**.tcp.stopOperationTimeout = 4000s
**.tcp.mss = 1448
**.tcp.sackSupport = true
**.client[*].numApps = 1
**.client[*].app[*].typename  = "TcpGoodputSessionApp"
*.client[*].app[0].tClose = -1s
*.client[*].app[0].sendBytes = 2GB
*.client[*].app[0].dataTransferMode = "bytecount"
*.client[*].app[0].statistic-recording = true

**.server[*].numApps = 1
**.server[*].app[*].typename  = "TcpSinkApp"
**.server[*].app[*].serverThreadModuleType = "tcpgoodputapplications.applications.tcpapp.TcpGoodputSinkAppThread"

**.ppp[*].queue.typename = "BandwidthRecorderDropTailQueue"

**.tcp.initialSsthresh = 724000

[Config BbrRun21]
extends = General 

**.numberOfFlows = 1 

*.client[0].app[0].connectAddress = "server[0]"
*.client[0].app[0].tOpen = 0s
*.client[0].app[0].tSend = 0s

**.ppp[*].queue.packetCapacity = 340

*.scenarioManager.script = xmldoc("../../scenarios/experiment1/run21.xml")

[Config BbrRun35]
extends = General 

**.numberOfFlows = 1 

*.client[0].app[0].connectAddress = "server[0]"
*.client[0].app[0].tOpen = 0s
*.client[0].app[0].tSend = 0s

**.ppp[*].queue.packetCapacity = 340

*.scenarioManager.script = xmldoc("../../scenarios/experiment1/run35.xml")

[Config BbrRun34]
extends = General 

**.numberOfFlows = 1 

*.client[0].app[0].connectAddress = "server[0]"
*.client[0].app[0].tOpen = 0s
*.client[0].app[0].tSend = 0s

**.ppp[*].queue.packetCapacity = 340

*.scenarioManager.script = xmldoc("../../scenarios/experiment1/run34.xml")

[Config BbrRun20]
extends = General 

**.numberOfFlows = 1 

*.client[0].app[0].connectAddress = "server[0]"
*.client[0].app[0].tOpen = 0s
*.client[0].app[0].tSend = 0s

**.ppp[*].queue.packetCapacity = 340

*.scenarioManager.script = xmldoc("../../scenarios/experiment1/run20.xml")

[Config BbrRun36]
extends = General 

**.numberOfFlows = 1 

*.client[0].app[0].connectAddress = "server[0]"
*.client[0].app[0].tOpen = 0s
*.client[0].app[0].tSend = 0s

**.ppp[*].queue.packetCapacity = 340

*.scenarioManager.script = xmldoc("../../scenarios/experiment1/run36.xml")

[Config BbrRun22]
extends = General 

**.numberOfFlows = 1 

*.client[0].app[0].connectAddress = "server[0]"
*.client[0].app[0].tOpen = 0s
*.client[0].app[0].tSend = 0s

**.ppp[*].queue.packetCapacity = 340

*.scenarioManager.script = xmldoc("../../scenarios/experiment1/run22.xml")

[Config BbrRun23]
extends = General 

**.numberOfFlows = 1 

*.client[0].app[0].connectAddress = "server[0]"
*.client[0].app[0].tOpen = 0s
*.client[0].app[0].tSend = 0s

**.ppp[*].queue.packetCapacity = 340

*.scenarioManager.script = xmldoc("../../scenarios/experiment1/run23.xml")

[Config BbrRun37]
extends = General 

**.numberOfFlows = 1 

*.client[0].app[0].connectAddress = "server[0]"
*.client[0].app[0].tOpen = 0s
*.client[0].app[0].tSend = 0s

**.ppp[*].queue.packetCapacity = 340

*.scenarioManager.script = xmldoc("../../scenarios/experiment1/run37.xml")

[Config BbrRun8]
extends = General 

**.numberOfFlows = 1 

*.client[0].app[0].connectAddress = "server[0]"
*.client[0].app[0].tOpen = 0s
*.client[0].app[0].tSend = 0s

**.ppp[*].queue.packetCapacity = 340

*.scenarioManager.script = xmldoc("../../scenarios/experiment1/run8.xml")

[Config BbrRun33]
extends = General 

**.numberOfFlows = 1 

*.client[0].app[0].connectAddress = "server[0]"
*.client[0].app[0].tOpen = 0s
*.client[0].app[0].tSend = 0s

**.ppp[*].queue.packetCapacity = 340

*.scenarioManager.script = xmldoc("../../scenarios/experiment1/run33.xml")

[Config BbrRun27]
extends = General 

**.numberOfFlows = 1 

*.client[0].app[0].connectAddress = "server[0]"
*.client[0].app[0].tOpen = 0s
*.client[0].app[0].tSend = 0s

**.ppp[*].queue.packetCapacity = 340

*.scenarioManager.script = xmldoc("../../scenarios/experiment1/run27.xml")

[Config BbrRun26]
extends = General 

**.numberOfFlows = 1 

*.client[0].app[0].connectAddress = "server[0]"
*.client[0].app[0].tOpen = 0s
*.client[0].app[0].tSend = 0s

**.ppp[*].queue.packetCapacity = 340

*.scenarioManager.script = xmldoc("../../scenarios/experiment1/run26.xml")

[Config BbrRun32]
extends = General 

**.numberOfFlows = 1 

*.client[0].app[0].connectAddress = "server[0]"
*.client[0].app[0].tOpen = 0s
*.client[0].app[0].tSend = 0s

**.ppp[*].queue.packetCapacity = 340

*.scenarioManager.script = xmldoc("../../scenarios/experiment1/run32.xml")

[Config BbrRun9]
extends = General 

**.numberOfFlows = 1 

*.client[0].app[0].connectAddress = "server[0]"
*.client[0].app[0].tOpen = 0s
*.client[0].app[0].tSend = 0s

**.ppp[*].queue.packetCapacity = 340

*.scenarioManager.script = xmldoc("../../scenarios/experiment1/run9.xml")

[Config BbrRun18]
extends = General 

**.numberOfFlows = 1 

*.client[0].app[0].connectAddress = "server[0]"
*.client[0].app[0].tOpen = 0s
*.client[0].app[0].tSend = 0s

**.ppp[*].queue.packetCapacity = 340

*.scenarioManager.script = xmldoc("../../scenarios/experiment1/run18.xml")

[Config BbrRun24]
extends = General 

**.numberOfFlows = 1 

*.client[0].app[0].connectAddress = "server[0]"
*.client[0].app[0].tOpen = 0s
*.client[0].app[0].tSend = 0s

**.ppp[*].queue.packetCapacity = 340

*.scenarioManager.script = xmldoc("../../scenarios/experiment1/run24.xml")

[Config BbrRun30]
extends = General 

**.numberOfFlows = 1 

*.client[0].app[0].connectAddress = "server[0]"
*.client[0].app[0].tOpen = 0s
*.client[0].app[0].tSend = 0s

**.ppp[*].queue.packetCapacity = 340

*.scenarioManager.script = xmldoc("../../scenarios/experiment1/run30.xml")

[Config BbrRun31]
extends = General 

**.numberOfFlows = 1 

*.client[0].app[0].connectAddress = "server[0]"
*.client[0].app[0].tOpen = 0s
*.client[0].app[0].tSend = 0s

**.ppp[*].queue.packetCapacity = 340

*.scenarioManager.script = xmldoc("../../scenarios/experiment1/run31.xml")

[Config BbrRun25]
extends = General 

**.numberOfFlows = 1 

*.client[0].app[0].connectAddress = "server[0]"
*.client[0].app[0].tOpen = 0s
*.client[0].app[0].tSend = 0s

**.ppp[*].queue.packetCapacity = 340

*.scenarioManager.script = xmldoc("../../scenarios/experiment1/run25.xml")

[Config BbrRun19]
extends = General 

**.numberOfFlows = 1 

*.client[0].app[0].connectAddress = "server[0]"
*.client[0].app[0].tOpen = 0s
*.client[0].app[0].tSend = 0s

**.ppp[*].queue.packetCapacity = 340

*.scenarioManager.script = xmldoc("../../scenarios/experiment1/run19.xml")

[Config BbrRun42]
extends = General 

**.numberOfFlows = 1 

*.client[0].app[0].connectAddress = "server[0]"
*.client[0].app[0].tOpen = 0s
*.client[0].app[0].tSend = 0s

**.ppp[*].queue.packetCapacity = 340

*.scenarioManager.script = xmldoc("../../scenarios/experiment1/run42.xml")

[Config BbrRun43]
extends = General 

**.numberOfFlows = 1 

*.client[0].app[0].connectAddress = "server[0]"
*.client[0].app[0].tOpen = 0s
*.client[0].app[0].tSend = 0s

**.ppp[*].queue.packetCapacity = 340

*.scenarioManager.script = xmldoc("../../scenarios/experiment1/run43.xml")

[Config BbrRun41]
extends = General 

**.numberOfFlows = 1 

*.client[0].app[0].connectAddress = "server[0]"
*.client[0].app[0].tOpen = 0s
*.client[0].app[0].tSend = 0s

**.ppp[*].queue.packetCapacity = 340

*.scenarioManager.script = xmldoc("../../scenarios/experiment1/run41.xml")

[Config BbrRun40]
extends = General 

**.numberOfFlows = 1 

*.client[0].app[0].connectAddress = "server[0]"
*.client[0].app[0].tOpen = 0s
*.client[0].app[0].tSend = 0s

**.ppp[*].queue.packetCapacity = 340

*.scenarioManager.script = xmldoc("../../scenarios/experiment1/run40.xml")

[Config BbrRun50]
extends = General 

**.numberOfFlows = 1 

*.client[0].app[0].connectAddress = "server[0]"
*.client[0].app[0].tOpen = 0s
*.client[0].app[0].tSend = 0s

**.ppp[*].queue.packetCapacity = 340

*.scenarioManager.script = xmldoc("../../scenarios/experiment1/run50.xml")

[Config BbrRun44]
extends = General 

**.numberOfFlows = 1 

*.client[0].app[0].connectAddress = "server[0]"
*.client[0].app[0].tOpen = 0s
*.client[0].app[0].tSend = 0s

**.ppp[*].queue.packetCapacity = 340

*.scenarioManager.script = xmldoc("../../scenarios/experiment1/run44.xml")

[Config BbrRun45]
extends = General 

**.numberOfFlows = 1 

*.client[0].app[0].connectAddress = "server[0]"
*.client[0].app[0].tOpen = 0s
*.client[0].app[0].tSend = 0s

**.ppp[*].queue.packetCapacity = 340

*.scenarioManager.script = xmldoc("../../scenarios/experiment1/run45.xml")

[Config BbrRun47]
extends = General 

**.numberOfFlows = 1 

*.client[0].app[0].connectAddress = "server[0]"
*.client[0].app[0].tOpen = 0s
*.client[0].app[0].tSend = 0s

**.ppp[*].queue.packetCapacity = 340

*.scenarioManager.script = xmldoc("../../scenarios/experiment1/run47.xml")

[Config BbrRun46]
extends = General 

**.numberOfFlows = 1 

*.client[0].app[0].connectAddress = "server[0]"
*.client[0].app[0].tOpen = 0s
*.client[0].app[0].tSend = 0s

**.ppp[*].queue.packetCapacity = 340

*.scenarioManager.script = xmldoc("../../scenarios/experiment1/run46.xml")

[Config BbrRun48]
extends = General 

**.numberOfFlows = 1 

*.client[0].app[0].connectAddress = "server[0]"
*.client[0].app[0].tOpen = 0s
*.client[0].app[0].tSend = 0s

**.ppp[*].queue.packetCapacity = 340

*.scenarioManager.script = xmldoc("../../scenarios/experiment1/run48.xml")

[Config BbrRun49]
extends = General 

**.numberOfFlows = 1 

*.client[0].app[0].connectAddress = "server[0]"
*.client[0].app[0].tOpen = 0s
*.client[0].app[0].tSend = 0s

**.ppp[*].queue.packetCapacity = 340

*.scenarioManager.script = xmldoc("../../scenarios/experiment1/run49.xml")

[Config BbrRun7]
extends = General 

**.numberOfFlows = 1 

*.client[0].app[0].connectAddress = "server[0]"
*.client[0].app[0].tOpen = 0s
*.client[0].app[0].tSend = 0s

**.ppp[*].queue.packetCapacity = 340

*.scenarioManager.script = xmldoc("../../scenarios/experiment1/run7.xml")

[Config BbrRun14]
extends = General 

**.numberOfFlows = 1 

*.client[0].app[0].connectAddress = "server[0]"
*.client[0].app[0].tOpen = 0s
*.client[0].app[0].tSend = 0s

**.ppp[*].queue.packetCapacity = 340

*.scenarioManager.script = xmldoc("../../scenarios/experiment1/run14.xml")

[Config BbrRun28]
extends = General 

**.numberOfFlows = 1 

*.client[0].app[0].connectAddress = "server[0]"
*.client[0].app[0].tOpen = 0s
*.client[0].app[0].tSend = 0s

**.ppp[*].queue.packetCapacity = 340

*.scenarioManager.script = xmldoc("../../scenarios/experiment1/run28.xml")

[Config BbrRun29]
extends = General 

**.numberOfFlows = 1 

*.client[0].app[0].connectAddress = "server[0]"
*.client[0].app[0].tOpen = 0s
*.client[0].app[0].tSend = 0s

**.ppp[*].queue.packetCapacity = 340

*.scenarioManager.script = xmldoc("../../scenarios/experiment1/run29.xml")

[Config BbrRun15]
extends = General 

**.numberOfFlows = 1 

*.client[0].app[0].connectAddress = "server[0]"
*.client[0].app[0].tOpen = 0s
*.client[0].app[0].tSend = 0s

**.ppp[*].queue.packetCapacity = 340

*.scenarioManager.script = xmldoc("../../scenarios/experiment1/run15.xml")

[Config BbrRun6]
extends = General 

**.numberOfFlows = 1 

*.client[0].app[0].connectAddress = "server[0]"
*.client[0].app[0].tOpen = 0s
*.client[0].app[0].tSend = 0s

**.ppp[*].queue.packetCapacity = 340

*.scenarioManager.script = xmldoc("../../scenarios/experiment1/run6.xml")

[Config BbrRun4]
extends = General 

**.numberOfFlows = 1 

*.client[0].app[0].connectAddress = "server[0]"
*.client[0].app[0].tOpen = 0s
*.client[0].app[0].tSend = 0s

**.ppp[*].queue.packetCapacity = 340

*.scenarioManager.script = xmldoc("../../scenarios/experiment1/run4.xml")

[Config BbrRun17]
extends = General 

**.numberOfFlows = 1 

*.client[0].app[0].connectAddress = "server[0]"
*.client[0].app[0].tOpen = 0s
*.client[0].app[0].tSend = 0s

**.ppp[*].queue.packetCapacity = 340

*.scenarioManager.script = xmldoc("../../scenarios/experiment1/run17.xml")

[Config BbrRun16]
extends = General 

**.numberOfFlows = 1 

*.client[0].app[0].connectAddress = "server[0]"
*.client[0].app[0].tOpen = 0s
*.client[0].app[0].tSend = 0s

**.ppp[*].queue.packetCapacity = 340

*.scenarioManager.script = xmldoc("../../scenarios/experiment1/run16.xml")

[Config BbrRun5]
extends = General 

**.numberOfFlows = 1 

*.client[0].app[0].connectAddress = "server[0]"
*.client[0].app[0].tOpen = 0s
*.client[0].app[0].tSend = 0s

**.ppp[*].queue.packetCapacity = 340

*.scenarioManager.script = xmldoc("../../scenarios/experiment1/run5.xml")

[Config BbrRun1]
extends = General 

**.numberOfFlows = 1 

*.client[0].app[0].connectAddress = "server[0]"
*.client[0].app[0].tOpen = 0s
*.client[0].app[0].tSend = 0s

**.ppp[*].queue.packetCapacity = 340

*.scenarioManager.script = xmldoc("../../scenarios/experiment1/run1.xml")

[Config BbrRun12]
extends = General 

**.numberOfFlows = 1 

*.client[0].app[0].connectAddress = "server[0]"
*.client[0].app[0].tOpen = 0s
*.client[0].app[0].tSend = 0s

**.ppp[*].queue.packetCapacity = 340

*.scenarioManager.script = xmldoc("../../scenarios/experiment1/run12.xml")

[Config BbrRun13]
extends = General 

**.numberOfFlows = 1 

*.client[0].app[0].connectAddress = "server[0]"
*.client[0].app[0].tOpen = 0s
*.client[0].app[0].tSend = 0s

**.ppp[*].queue.packetCapacity = 340

*.scenarioManager.script = xmldoc("../../scenarios/experiment1/run13.xml")

[Config BbrRun2]
extends = General 

**.numberOfFlows = 1 

*.client[0].app[0].connectAddress = "server[0]"
*.client[0].app[0].tOpen = 0s
*.client[0].app[0].tSend = 0s

**.ppp[*].queue.packetCapacity = 340

*.scenarioManager.script = xmldoc("../../scenarios/experiment1/run2.xml")

[Config BbrRun39]
extends = General 

**.numberOfFlows = 1 

*.client[0].app[0].connectAddress = "server[0]"
*.client[0].app[0].tOpen = 0s
*.client[0].app[0].tSend = 0s

**.ppp[*].queue.packetCapacity = 340

*.scenarioManager.script = xmldoc("../../scenarios/experiment1/run39.xml")

[Config BbrRun11]
extends = General 

**.numberOfFlows = 1 

*.client[0].app[0].connectAddress = "server[0]"
*.client[0].app[0].tOpen = 0s
*.client[0].app[0].tSend = 0s

**.ppp[*].queue.packetCapacity = 340

*.scenarioManager.script = xmldoc("../../scenarios/experiment1/run11.xml")

[Config BbrRun10]
extends = General 

**.numberOfFlows = 1 

*.client[0].app[0].connectAddress = "server[0]"
*.client[0].app[0].tOpen = 0s
*.client[0].app[0].tSend = 0s

**.ppp[*].queue.packetCapacity = 340

*.scenarioManager.script = xmldoc("../../scenarios/experiment1/run10.xml")

[Config BbrRun38]
extends = General 

**.numberOfFlows = 1 

*.client[0].app[0].connectAddress = "server[0]"
*.client[0].app[0].tOpen = 0s
*.client[0].app[0].tSend = 0s

**.ppp[*].queue.packetCapacity = 340

*.scenarioManager.script = xmldoc("../../scenarios/experiment1/run38.xml")

[Config BbrRun3]
extends = General 

**.numberOfFlows = 1 

*.client[0].app[0].connectAddress = "server[0]"
*.client[0].app[0].tOpen = 0s
*.client[0].app[0].tSend = 0s

**.ppp[*].queue.packetCapacity = 340

*.scenarioManager.script = xmldoc("../../scenarios/experiment1/run3.xml")
