[General]

network = singledumbbell
sim-time-limit = 300s
record-eventlog=false
cmdenv-express-mode = true
cmdenv-redirect-output = false
cmdenv-output-file = dctcpLog.txt
**.client*.tcp.conn-8.cmdenv-log-level = detail
cmdenv-log-prefix = %t | %m |


cmdenv-event-banners = false
**.cmdenv-log-level = off

**.**.tcp.conn-*.cwnd:vector.vector-recording = true
**.**.tcp.conn-*.u:vector.vector-recording = true
**.**.tcp.conn-*.U:vector.vector-recording = true
**.**.tcp.conn-*.additiveIncrease:vector.vector-recording = true
c**.**.tcp.conn-*.sharingFlows:vector.vector-recording = true
**.**.tcp.conn-*.tau:vector.vector-recording = true
**.**.tcp.conn-*.txRate:vector.vector-recording = true
**.**.tcp.conn-*.rtt:vector.vector-recording = true
**.**.tcp.conn-*.lossRecovery:vector.vector-recording = true
**.**.tcp.conn-*.srtt:vector.vector-recording = true
**.**.tcp.conn-*.queueingDelay:vector.vector-recording = true
**.**.tcp.conn-*.estimatedRtt:vector.vector-recording = true
**.**.tcp.conn-*.avgRtt:vector.vector-recording = true
**.**.tcp.conn-*.ssthresh:vector.vector-recording = true
**.**.queue.queueLength:vector.vector-recording = true
**.**.queue.queueingTime:vector.vector-recording = true
**.**.queue.avgRttQueue:vector.vector-recording = true
**.**.ReceiverSideThroughput:vector.vector-recording = true
**.**.numberOfFlows:vector.vector-recording = true
**.**.alpha:vector.vector-recording = true
**.**.bandwidth:vector.vector-recording = true
**.**.mbytesInFlight:vector.vector-recording = true
**.**.persistentQueueingDelay:vector.vector-recording = true
**.scalar-recording=false
**.vector-recording=false
**.bin-recording=false

**.server[*].app[*].*.thrMeasurementInterval = 2s
**.tcp.typename = "PacedTcp"
**.tcp.tcpAlgorithmClass = "TcpCubic"
**.tcp.advertisedWindow = 200000000
**.tcp.windowScalingSupport = true
**.tcp.windowScalingFactor = -1
**.tcp.increasedIWEnabled = true
**.tcp.delayedAcksEnabled = false
**.tcp.timestampSupport = true
**.tcp.ecnWillingness = false
**.tcp.nagleEnabled = true
**.tcp.stopOperationTimeout = 4000s
**.tcp.mss = 1448
**.tcp.sackSupport = true
**.client[*].numApps = 1
**.client[*].app[*].typename  = "TcpSessionApp"
*.client[*].app[0].tClose = -1s
*.client[*].app[0].sendBytes = 2GB
*.client[*].app[0].dataTransferMode = "bytecount"
*.client[*].app[0].statistic-recording = true

**.server[*].numApps = 1
**.server[*].app[*].typename  = "TcpSinkApp"
**.server[*].app[*].serverThreadModuleType = "orbtcp.applications.tcpapp.TcpThroughputSinkAppThread"

**.ppp[*].queue.typename = "BandwidthRecorderDropTailQueue"

**.tcp.initialSsthresh = 579200

[Config CubicRun21]
extends = General 

**.numberOfFlows = 1 

*.client[0].app[0].connectAddress = "server[0]"
*.client[0].app[0].tOpen = 0s
*.client[0].app[0].tSend = 0s

*.client[*].app[0].connectAddress = "server[" + string(parentIndex()) +"]"
*.client[*].app[0].tOpen = 0s
*.client[*].app[0].tSend = uniform(0s,100s)

**.ppp[*].queue.packetCapacity = 500

*.scenarioManager.script = xmldoc("../../scenarios/experiment1/run21.xml")

[Config CubicRun35]
extends = General 

**.numberOfFlows = 1 

*.client[0].app[0].connectAddress = "server[0]"
*.client[0].app[0].tOpen = 0s
*.client[0].app[0].tSend = 0s

*.client[*].app[0].connectAddress = "server[" + string(parentIndex()) +"]"
*.client[*].app[0].tOpen = 0s
*.client[*].app[0].tSend = uniform(0s,100s)

**.ppp[*].queue.packetCapacity = 500

*.scenarioManager.script = xmldoc("../../scenarios/experiment1/run35.xml")

[Config CubicRun34]
extends = General 

**.numberOfFlows = 1 

*.client[0].app[0].connectAddress = "server[0]"
*.client[0].app[0].tOpen = 0s
*.client[0].app[0].tSend = 0s

*.client[*].app[0].connectAddress = "server[" + string(parentIndex()) +"]"
*.client[*].app[0].tOpen = 0s
*.client[*].app[0].tSend = uniform(0s,100s)

**.ppp[*].queue.packetCapacity = 500

*.scenarioManager.script = xmldoc("../../scenarios/experiment1/run34.xml")

[Config CubicRun20]
extends = General 

**.numberOfFlows = 1 

*.client[0].app[0].connectAddress = "server[0]"
*.client[0].app[0].tOpen = 0s
*.client[0].app[0].tSend = 0s

*.client[*].app[0].connectAddress = "server[" + string(parentIndex()) +"]"
*.client[*].app[0].tOpen = 0s
*.client[*].app[0].tSend = uniform(0s,100s)

**.ppp[*].queue.packetCapacity = 500

*.scenarioManager.script = xmldoc("../../scenarios/experiment1/run20.xml")

[Config CubicRun36]
extends = General 

**.numberOfFlows = 1 

*.client[0].app[0].connectAddress = "server[0]"
*.client[0].app[0].tOpen = 0s
*.client[0].app[0].tSend = 0s

*.client[*].app[0].connectAddress = "server[" + string(parentIndex()) +"]"
*.client[*].app[0].tOpen = 0s
*.client[*].app[0].tSend = uniform(0s,100s)

**.ppp[*].queue.packetCapacity = 500

*.scenarioManager.script = xmldoc("../../scenarios/experiment1/run36.xml")

[Config CubicRun22]
extends = General 

**.numberOfFlows = 1 

*.client[0].app[0].connectAddress = "server[0]"
*.client[0].app[0].tOpen = 0s
*.client[0].app[0].tSend = 0s

*.client[*].app[0].connectAddress = "server[" + string(parentIndex()) +"]"
*.client[*].app[0].tOpen = 0s
*.client[*].app[0].tSend = uniform(0s,100s)

**.ppp[*].queue.packetCapacity = 500

*.scenarioManager.script = xmldoc("../../scenarios/experiment1/run22.xml")

[Config CubicRun23]
extends = General 

**.numberOfFlows = 1 

*.client[0].app[0].connectAddress = "server[0]"
*.client[0].app[0].tOpen = 0s
*.client[0].app[0].tSend = 0s

*.client[*].app[0].connectAddress = "server[" + string(parentIndex()) +"]"
*.client[*].app[0].tOpen = 0s
*.client[*].app[0].tSend = uniform(0s,100s)

**.ppp[*].queue.packetCapacity = 500

*.scenarioManager.script = xmldoc("../../scenarios/experiment1/run23.xml")

[Config CubicRun37]
extends = General 

**.numberOfFlows = 1 

*.client[0].app[0].connectAddress = "server[0]"
*.client[0].app[0].tOpen = 0s
*.client[0].app[0].tSend = 0s

*.client[*].app[0].connectAddress = "server[" + string(parentIndex()) +"]"
*.client[*].app[0].tOpen = 0s
*.client[*].app[0].tSend = uniform(0s,100s)

**.ppp[*].queue.packetCapacity = 500

*.scenarioManager.script = xmldoc("../../scenarios/experiment1/run37.xml")

[Config CubicRun8]
extends = General 

**.numberOfFlows = 1 

*.client[0].app[0].connectAddress = "server[0]"
*.client[0].app[0].tOpen = 0s
*.client[0].app[0].tSend = 0s

*.client[*].app[0].connectAddress = "server[" + string(parentIndex()) +"]"
*.client[*].app[0].tOpen = 0s
*.client[*].app[0].tSend = uniform(0s,100s)

**.ppp[*].queue.packetCapacity = 500

*.scenarioManager.script = xmldoc("../../scenarios/experiment1/run8.xml")

[Config CubicRun33]
extends = General 

**.numberOfFlows = 1 

*.client[0].app[0].connectAddress = "server[0]"
*.client[0].app[0].tOpen = 0s
*.client[0].app[0].tSend = 0s

*.client[*].app[0].connectAddress = "server[" + string(parentIndex()) +"]"
*.client[*].app[0].tOpen = 0s
*.client[*].app[0].tSend = uniform(0s,100s)

**.ppp[*].queue.packetCapacity = 500

*.scenarioManager.script = xmldoc("../../scenarios/experiment1/run33.xml")

[Config CubicRun27]
extends = General 

**.numberOfFlows = 1 

*.client[0].app[0].connectAddress = "server[0]"
*.client[0].app[0].tOpen = 0s
*.client[0].app[0].tSend = 0s

*.client[*].app[0].connectAddress = "server[" + string(parentIndex()) +"]"
*.client[*].app[0].tOpen = 0s
*.client[*].app[0].tSend = uniform(0s,100s)

**.ppp[*].queue.packetCapacity = 500

*.scenarioManager.script = xmldoc("../../scenarios/experiment1/run27.xml")

[Config CubicRun26]
extends = General 

**.numberOfFlows = 1 

*.client[0].app[0].connectAddress = "server[0]"
*.client[0].app[0].tOpen = 0s
*.client[0].app[0].tSend = 0s

*.client[*].app[0].connectAddress = "server[" + string(parentIndex()) +"]"
*.client[*].app[0].tOpen = 0s
*.client[*].app[0].tSend = uniform(0s,100s)

**.ppp[*].queue.packetCapacity = 500

*.scenarioManager.script = xmldoc("../../scenarios/experiment1/run26.xml")

[Config CubicRun32]
extends = General 

**.numberOfFlows = 1 

*.client[0].app[0].connectAddress = "server[0]"
*.client[0].app[0].tOpen = 0s
*.client[0].app[0].tSend = 0s

*.client[*].app[0].connectAddress = "server[" + string(parentIndex()) +"]"
*.client[*].app[0].tOpen = 0s
*.client[*].app[0].tSend = uniform(0s,100s)

**.ppp[*].queue.packetCapacity = 500

*.scenarioManager.script = xmldoc("../../scenarios/experiment1/run32.xml")

[Config CubicRun9]
extends = General 

**.numberOfFlows = 1 

*.client[0].app[0].connectAddress = "server[0]"
*.client[0].app[0].tOpen = 0s
*.client[0].app[0].tSend = 0s

*.client[*].app[0].connectAddress = "server[" + string(parentIndex()) +"]"
*.client[*].app[0].tOpen = 0s
*.client[*].app[0].tSend = uniform(0s,100s)

**.ppp[*].queue.packetCapacity = 500

*.scenarioManager.script = xmldoc("../../scenarios/experiment1/run9.xml")

[Config CubicRun18]
extends = General 

**.numberOfFlows = 1 

*.client[0].app[0].connectAddress = "server[0]"
*.client[0].app[0].tOpen = 0s
*.client[0].app[0].tSend = 0s

*.client[*].app[0].connectAddress = "server[" + string(parentIndex()) +"]"
*.client[*].app[0].tOpen = 0s
*.client[*].app[0].tSend = uniform(0s,100s)

**.ppp[*].queue.packetCapacity = 500

*.scenarioManager.script = xmldoc("../../scenarios/experiment1/run18.xml")

[Config CubicRun24]
extends = General 

**.numberOfFlows = 1 

*.client[0].app[0].connectAddress = "server[0]"
*.client[0].app[0].tOpen = 0s
*.client[0].app[0].tSend = 0s

*.client[*].app[0].connectAddress = "server[" + string(parentIndex()) +"]"
*.client[*].app[0].tOpen = 0s
*.client[*].app[0].tSend = uniform(0s,100s)

**.ppp[*].queue.packetCapacity = 500

*.scenarioManager.script = xmldoc("../../scenarios/experiment1/run24.xml")

[Config CubicRun30]
extends = General 

**.numberOfFlows = 1 

*.client[0].app[0].connectAddress = "server[0]"
*.client[0].app[0].tOpen = 0s
*.client[0].app[0].tSend = 0s

*.client[*].app[0].connectAddress = "server[" + string(parentIndex()) +"]"
*.client[*].app[0].tOpen = 0s
*.client[*].app[0].tSend = uniform(0s,100s)

**.ppp[*].queue.packetCapacity = 500

*.scenarioManager.script = xmldoc("../../scenarios/experiment1/run30.xml")

[Config CubicRun31]
extends = General 

**.numberOfFlows = 1 

*.client[0].app[0].connectAddress = "server[0]"
*.client[0].app[0].tOpen = 0s
*.client[0].app[0].tSend = 0s

*.client[*].app[0].connectAddress = "server[" + string(parentIndex()) +"]"
*.client[*].app[0].tOpen = 0s
*.client[*].app[0].tSend = uniform(0s,100s)

**.ppp[*].queue.packetCapacity = 500

*.scenarioManager.script = xmldoc("../../scenarios/experiment1/run31.xml")

[Config CubicRun25]
extends = General 

**.numberOfFlows = 1 

*.client[0].app[0].connectAddress = "server[0]"
*.client[0].app[0].tOpen = 0s
*.client[0].app[0].tSend = 0s

*.client[*].app[0].connectAddress = "server[" + string(parentIndex()) +"]"
*.client[*].app[0].tOpen = 0s
*.client[*].app[0].tSend = uniform(0s,100s)

**.ppp[*].queue.packetCapacity = 500

*.scenarioManager.script = xmldoc("../../scenarios/experiment1/run25.xml")

[Config CubicRun19]
extends = General 

**.numberOfFlows = 1 

*.client[0].app[0].connectAddress = "server[0]"
*.client[0].app[0].tOpen = 0s
*.client[0].app[0].tSend = 0s

*.client[*].app[0].connectAddress = "server[" + string(parentIndex()) +"]"
*.client[*].app[0].tOpen = 0s
*.client[*].app[0].tSend = uniform(0s,100s)

**.ppp[*].queue.packetCapacity = 500

*.scenarioManager.script = xmldoc("../../scenarios/experiment1/run19.xml")

[Config CubicRun42]
extends = General 

**.numberOfFlows = 1 

*.client[0].app[0].connectAddress = "server[0]"
*.client[0].app[0].tOpen = 0s
*.client[0].app[0].tSend = 0s

*.client[*].app[0].connectAddress = "server[" + string(parentIndex()) +"]"
*.client[*].app[0].tOpen = 0s
*.client[*].app[0].tSend = uniform(0s,100s)

**.ppp[*].queue.packetCapacity = 500

*.scenarioManager.script = xmldoc("../../scenarios/experiment1/run42.xml")

[Config CubicRun43]
extends = General 

**.numberOfFlows = 1 

*.client[0].app[0].connectAddress = "server[0]"
*.client[0].app[0].tOpen = 0s
*.client[0].app[0].tSend = 0s

*.client[*].app[0].connectAddress = "server[" + string(parentIndex()) +"]"
*.client[*].app[0].tOpen = 0s
*.client[*].app[0].tSend = uniform(0s,100s)

**.ppp[*].queue.packetCapacity = 500

*.scenarioManager.script = xmldoc("../../scenarios/experiment1/run43.xml")

[Config CubicRun41]
extends = General 

**.numberOfFlows = 1 

*.client[0].app[0].connectAddress = "server[0]"
*.client[0].app[0].tOpen = 0s
*.client[0].app[0].tSend = 0s

*.client[*].app[0].connectAddress = "server[" + string(parentIndex()) +"]"
*.client[*].app[0].tOpen = 0s
*.client[*].app[0].tSend = uniform(0s,100s)

**.ppp[*].queue.packetCapacity = 500

*.scenarioManager.script = xmldoc("../../scenarios/experiment1/run41.xml")

[Config CubicRun40]
extends = General 

**.numberOfFlows = 1 

*.client[0].app[0].connectAddress = "server[0]"
*.client[0].app[0].tOpen = 0s
*.client[0].app[0].tSend = 0s

*.client[*].app[0].connectAddress = "server[" + string(parentIndex()) +"]"
*.client[*].app[0].tOpen = 0s
*.client[*].app[0].tSend = uniform(0s,100s)

**.ppp[*].queue.packetCapacity = 500

*.scenarioManager.script = xmldoc("../../scenarios/experiment1/run40.xml")

[Config CubicRun50]
extends = General 

**.numberOfFlows = 1 

*.client[0].app[0].connectAddress = "server[0]"
*.client[0].app[0].tOpen = 0s
*.client[0].app[0].tSend = 0s

*.client[*].app[0].connectAddress = "server[" + string(parentIndex()) +"]"
*.client[*].app[0].tOpen = 0s
*.client[*].app[0].tSend = uniform(0s,100s)

**.ppp[*].queue.packetCapacity = 500

*.scenarioManager.script = xmldoc("../../scenarios/experiment1/run50.xml")

[Config CubicRun44]
extends = General 

**.numberOfFlows = 1 

*.client[0].app[0].connectAddress = "server[0]"
*.client[0].app[0].tOpen = 0s
*.client[0].app[0].tSend = 0s

*.client[*].app[0].connectAddress = "server[" + string(parentIndex()) +"]"
*.client[*].app[0].tOpen = 0s
*.client[*].app[0].tSend = uniform(0s,100s)

**.ppp[*].queue.packetCapacity = 500

*.scenarioManager.script = xmldoc("../../scenarios/experiment1/run44.xml")

[Config CubicRun45]
extends = General 

**.numberOfFlows = 1 

*.client[0].app[0].connectAddress = "server[0]"
*.client[0].app[0].tOpen = 0s
*.client[0].app[0].tSend = 0s

*.client[*].app[0].connectAddress = "server[" + string(parentIndex()) +"]"
*.client[*].app[0].tOpen = 0s
*.client[*].app[0].tSend = uniform(0s,100s)

**.ppp[*].queue.packetCapacity = 500

*.scenarioManager.script = xmldoc("../../scenarios/experiment1/run45.xml")

[Config CubicRun47]
extends = General 

**.numberOfFlows = 1 

*.client[0].app[0].connectAddress = "server[0]"
*.client[0].app[0].tOpen = 0s
*.client[0].app[0].tSend = 0s

*.client[*].app[0].connectAddress = "server[" + string(parentIndex()) +"]"
*.client[*].app[0].tOpen = 0s
*.client[*].app[0].tSend = uniform(0s,100s)

**.ppp[*].queue.packetCapacity = 500

*.scenarioManager.script = xmldoc("../../scenarios/experiment1/run47.xml")

[Config CubicRun46]
extends = General 

**.numberOfFlows = 1 

*.client[0].app[0].connectAddress = "server[0]"
*.client[0].app[0].tOpen = 0s
*.client[0].app[0].tSend = 0s

*.client[*].app[0].connectAddress = "server[" + string(parentIndex()) +"]"
*.client[*].app[0].tOpen = 0s
*.client[*].app[0].tSend = uniform(0s,100s)

**.ppp[*].queue.packetCapacity = 500

*.scenarioManager.script = xmldoc("../../scenarios/experiment1/run46.xml")

[Config CubicRun48]
extends = General 

**.numberOfFlows = 1 

*.client[0].app[0].connectAddress = "server[0]"
*.client[0].app[0].tOpen = 0s
*.client[0].app[0].tSend = 0s

*.client[*].app[0].connectAddress = "server[" + string(parentIndex()) +"]"
*.client[*].app[0].tOpen = 0s
*.client[*].app[0].tSend = uniform(0s,100s)

**.ppp[*].queue.packetCapacity = 500

*.scenarioManager.script = xmldoc("../../scenarios/experiment1/run48.xml")

[Config CubicRun49]
extends = General 

**.numberOfFlows = 1 

*.client[0].app[0].connectAddress = "server[0]"
*.client[0].app[0].tOpen = 0s
*.client[0].app[0].tSend = 0s

*.client[*].app[0].connectAddress = "server[" + string(parentIndex()) +"]"
*.client[*].app[0].tOpen = 0s
*.client[*].app[0].tSend = uniform(0s,100s)

**.ppp[*].queue.packetCapacity = 500

*.scenarioManager.script = xmldoc("../../scenarios/experiment1/run49.xml")

[Config CubicRun7]
extends = General 

**.numberOfFlows = 1 

*.client[0].app[0].connectAddress = "server[0]"
*.client[0].app[0].tOpen = 0s
*.client[0].app[0].tSend = 0s

*.client[*].app[0].connectAddress = "server[" + string(parentIndex()) +"]"
*.client[*].app[0].tOpen = 0s
*.client[*].app[0].tSend = uniform(0s,100s)

**.ppp[*].queue.packetCapacity = 500

*.scenarioManager.script = xmldoc("../../scenarios/experiment1/run7.xml")

[Config CubicRun14]
extends = General 

**.numberOfFlows = 1 

*.client[0].app[0].connectAddress = "server[0]"
*.client[0].app[0].tOpen = 0s
*.client[0].app[0].tSend = 0s

*.client[*].app[0].connectAddress = "server[" + string(parentIndex()) +"]"
*.client[*].app[0].tOpen = 0s
*.client[*].app[0].tSend = uniform(0s,100s)

**.ppp[*].queue.packetCapacity = 500

*.scenarioManager.script = xmldoc("../../scenarios/experiment1/run14.xml")

[Config CubicRun28]
extends = General 

**.numberOfFlows = 1 

*.client[0].app[0].connectAddress = "server[0]"
*.client[0].app[0].tOpen = 0s
*.client[0].app[0].tSend = 0s

*.client[*].app[0].connectAddress = "server[" + string(parentIndex()) +"]"
*.client[*].app[0].tOpen = 0s
*.client[*].app[0].tSend = uniform(0s,100s)

**.ppp[*].queue.packetCapacity = 500

*.scenarioManager.script = xmldoc("../../scenarios/experiment1/run28.xml")

[Config CubicRun29]
extends = General 

**.numberOfFlows = 1 

*.client[0].app[0].connectAddress = "server[0]"
*.client[0].app[0].tOpen = 0s
*.client[0].app[0].tSend = 0s

*.client[*].app[0].connectAddress = "server[" + string(parentIndex()) +"]"
*.client[*].app[0].tOpen = 0s
*.client[*].app[0].tSend = uniform(0s,100s)

**.ppp[*].queue.packetCapacity = 500

*.scenarioManager.script = xmldoc("../../scenarios/experiment1/run29.xml")

[Config CubicRun15]
extends = General 

**.numberOfFlows = 1 

*.client[0].app[0].connectAddress = "server[0]"
*.client[0].app[0].tOpen = 0s
*.client[0].app[0].tSend = 0s

*.client[*].app[0].connectAddress = "server[" + string(parentIndex()) +"]"
*.client[*].app[0].tOpen = 0s
*.client[*].app[0].tSend = uniform(0s,100s)

**.ppp[*].queue.packetCapacity = 500

*.scenarioManager.script = xmldoc("../../scenarios/experiment1/run15.xml")

[Config CubicRun6]
extends = General 

**.numberOfFlows = 1 

*.client[0].app[0].connectAddress = "server[0]"
*.client[0].app[0].tOpen = 0s
*.client[0].app[0].tSend = 0s

*.client[*].app[0].connectAddress = "server[" + string(parentIndex()) +"]"
*.client[*].app[0].tOpen = 0s
*.client[*].app[0].tSend = uniform(0s,100s)

**.ppp[*].queue.packetCapacity = 500

*.scenarioManager.script = xmldoc("../../scenarios/experiment1/run6.xml")

[Config CubicRun4]
extends = General 

**.numberOfFlows = 1 

*.client[0].app[0].connectAddress = "server[0]"
*.client[0].app[0].tOpen = 0s
*.client[0].app[0].tSend = 0s

*.client[*].app[0].connectAddress = "server[" + string(parentIndex()) +"]"
*.client[*].app[0].tOpen = 0s
*.client[*].app[0].tSend = uniform(0s,100s)

**.ppp[*].queue.packetCapacity = 500

*.scenarioManager.script = xmldoc("../../scenarios/experiment1/run4.xml")

[Config CubicRun17]
extends = General 

**.numberOfFlows = 1 

*.client[0].app[0].connectAddress = "server[0]"
*.client[0].app[0].tOpen = 0s
*.client[0].app[0].tSend = 0s

*.client[*].app[0].connectAddress = "server[" + string(parentIndex()) +"]"
*.client[*].app[0].tOpen = 0s
*.client[*].app[0].tSend = uniform(0s,100s)

**.ppp[*].queue.packetCapacity = 500

*.scenarioManager.script = xmldoc("../../scenarios/experiment1/run17.xml")

[Config CubicRun16]
extends = General 

**.numberOfFlows = 1 

*.client[0].app[0].connectAddress = "server[0]"
*.client[0].app[0].tOpen = 0s
*.client[0].app[0].tSend = 0s

*.client[*].app[0].connectAddress = "server[" + string(parentIndex()) +"]"
*.client[*].app[0].tOpen = 0s
*.client[*].app[0].tSend = uniform(0s,100s)

**.ppp[*].queue.packetCapacity = 500

*.scenarioManager.script = xmldoc("../../scenarios/experiment1/run16.xml")

[Config CubicRun5]
extends = General 

**.numberOfFlows = 1 

*.client[0].app[0].connectAddress = "server[0]"
*.client[0].app[0].tOpen = 0s
*.client[0].app[0].tSend = 0s

*.client[*].app[0].connectAddress = "server[" + string(parentIndex()) +"]"
*.client[*].app[0].tOpen = 0s
*.client[*].app[0].tSend = uniform(0s,100s)

**.ppp[*].queue.packetCapacity = 500

*.scenarioManager.script = xmldoc("../../scenarios/experiment1/run5.xml")

[Config CubicRun1]
extends = General 

**.numberOfFlows = 1 

*.client[0].app[0].connectAddress = "server[0]"
*.client[0].app[0].tOpen = 0s
*.client[0].app[0].tSend = 0s

*.client[*].app[0].connectAddress = "server[" + string(parentIndex()) +"]"
*.client[*].app[0].tOpen = 0s
*.client[*].app[0].tSend = uniform(0s,100s)

**.ppp[*].queue.packetCapacity = 500

*.scenarioManager.script = xmldoc("../../scenarios/experiment1/run1.xml")

[Config CubicRun12]
extends = General 

**.numberOfFlows = 1 

*.client[0].app[0].connectAddress = "server[0]"
*.client[0].app[0].tOpen = 0s
*.client[0].app[0].tSend = 0s

*.client[*].app[0].connectAddress = "server[" + string(parentIndex()) +"]"
*.client[*].app[0].tOpen = 0s
*.client[*].app[0].tSend = uniform(0s,100s)

**.ppp[*].queue.packetCapacity = 500

*.scenarioManager.script = xmldoc("../../scenarios/experiment1/run12.xml")

[Config CubicRun13]
extends = General 

**.numberOfFlows = 1 

*.client[0].app[0].connectAddress = "server[0]"
*.client[0].app[0].tOpen = 0s
*.client[0].app[0].tSend = 0s

*.client[*].app[0].connectAddress = "server[" + string(parentIndex()) +"]"
*.client[*].app[0].tOpen = 0s
*.client[*].app[0].tSend = uniform(0s,100s)

**.ppp[*].queue.packetCapacity = 500

*.scenarioManager.script = xmldoc("../../scenarios/experiment1/run13.xml")

[Config CubicRun2]
extends = General 

**.numberOfFlows = 1 

*.client[0].app[0].connectAddress = "server[0]"
*.client[0].app[0].tOpen = 0s
*.client[0].app[0].tSend = 0s

*.client[*].app[0].connectAddress = "server[" + string(parentIndex()) +"]"
*.client[*].app[0].tOpen = 0s
*.client[*].app[0].tSend = uniform(0s,100s)

**.ppp[*].queue.packetCapacity = 500

*.scenarioManager.script = xmldoc("../../scenarios/experiment1/run2.xml")

[Config CubicRun39]
extends = General 

**.numberOfFlows = 1 

*.client[0].app[0].connectAddress = "server[0]"
*.client[0].app[0].tOpen = 0s
*.client[0].app[0].tSend = 0s

*.client[*].app[0].connectAddress = "server[" + string(parentIndex()) +"]"
*.client[*].app[0].tOpen = 0s
*.client[*].app[0].tSend = uniform(0s,100s)

**.ppp[*].queue.packetCapacity = 500

*.scenarioManager.script = xmldoc("../../scenarios/experiment1/run39.xml")

[Config CubicRun11]
extends = General 

**.numberOfFlows = 1 

*.client[0].app[0].connectAddress = "server[0]"
*.client[0].app[0].tOpen = 0s
*.client[0].app[0].tSend = 0s

*.client[*].app[0].connectAddress = "server[" + string(parentIndex()) +"]"
*.client[*].app[0].tOpen = 0s
*.client[*].app[0].tSend = uniform(0s,100s)

**.ppp[*].queue.packetCapacity = 500

*.scenarioManager.script = xmldoc("../../scenarios/experiment1/run11.xml")

[Config CubicRun10]
extends = General 

**.numberOfFlows = 1 

*.client[0].app[0].connectAddress = "server[0]"
*.client[0].app[0].tOpen = 0s
*.client[0].app[0].tSend = 0s

*.client[*].app[0].connectAddress = "server[" + string(parentIndex()) +"]"
*.client[*].app[0].tOpen = 0s
*.client[*].app[0].tSend = uniform(0s,100s)

**.ppp[*].queue.packetCapacity = 500

*.scenarioManager.script = xmldoc("../../scenarios/experiment1/run10.xml")

[Config CubicRun38]
extends = General 

**.numberOfFlows = 1 

*.client[0].app[0].connectAddress = "server[0]"
*.client[0].app[0].tOpen = 0s
*.client[0].app[0].tSend = 0s

*.client[*].app[0].connectAddress = "server[" + string(parentIndex()) +"]"
*.client[*].app[0].tOpen = 0s
*.client[*].app[0].tSend = uniform(0s,100s)

**.ppp[*].queue.packetCapacity = 500

*.scenarioManager.script = xmldoc("../../scenarios/experiment1/run38.xml")

[Config CubicRun3]
extends = General 

**.numberOfFlows = 1 

*.client[0].app[0].connectAddress = "server[0]"
*.client[0].app[0].tOpen = 0s
*.client[0].app[0].tSend = 0s

*.client[*].app[0].connectAddress = "server[" + string(parentIndex()) +"]"
*.client[*].app[0].tOpen = 0s
*.client[*].app[0].tSend = uniform(0s,100s)

**.ppp[*].queue.packetCapacity = 500

*.scenarioManager.script = xmldoc("../../scenarios/experiment1/run3.xml")
