[General]

network = simplenetworkpathchange
sim-time-limit = 200s
record-eventlog=false
cmdenv-express-mode = true
cmdenv-redirect-output = false
cmdenv-output-file = test.txt
**.client*.tcp.conn-8.cmdenv-log-level = detail
cmdenv-log-prefix = %t | %m |


cmdenv-event-banners = false
**.cmdenv-log-level = off

**.**.tcp.conn-*.cwnd:vector.vector-recording = true
**.**.tcp.conn-*.rtt:vector.vector-recording = true
**.**.tcp.conn-*.lossRecovery:vector.vector-recording = true
**.**.tcp.conn-*.srtt:vector.vector-recording = true
**.**.tcp.conn-*.queueingDelay:vector.vector-recording = true
**.**.tcp.conn-*.ssthresh:vector.vector-recording = true
**.**.queue.queueLength:vector.vector-recording = true
**.**.queue.queueingTime:vector.vector-recording = true
**.**.ReceiverSideThroughput:vector.vector-recording = true
**.**.persistentQueueingDelay:vector.vector-recording = true
**.scalar-recording=false
**.vector-recording=false
**.bin-recording=false

**.server[*].app[*].*.thrMeasurementInterval = 0.3s
**.server[*].app[*].*.thrMeasurementBandwidth = 50000000

**.tcp.typename = "Tcp"
**.tcp.tcpAlgorithmClass = "TcpVegas"
**.tcp.advertisedWindow = 200000000
**.tcp.windowScalingSupport = true
**.tcp.windowScalingFactor = -1
**.tcp.increasedIWEnabled = false
**.tcp.delayedAcksEnabled = false
**.tcp.ecnWillingness = false
**.tcp.nagleEnabled = true
**.tcp.stopOperationTimeout = 4000s
**.tcp.mss = 1024
**.tcp.sackSupport = false
**.tcp.timestampSupport = true
**.tcp.initialSsthresh = 42*1460


**.constantClient[*].numApps = 1
**.constantClient[*].app[*].typename  = "TcpSessionApp"
**.constantClient[*].app[0].tClose = -1s
**.constantClient[*].app[0].sendBytes = 2GB
**.constantClient[*].app[0].dataTransferMode = "bytecount"
**.constantClient[*].app[0].statistic-recording = true

**.constantServer[*].numApps = 1
**.constantServer[*].app[*].typename  = "TcpSinkApp"
**.constantServer[*].app[*].serverThreadModuleType = "orbtcp.applications.tcpapp.TcpThroughputSinkAppThread"

**.constantServer[*].app[*].*.thrMeasurementInterval = 0.3s
**.constantServer[*].app[*].*.thrMeasurementBandwidth = 50000000

**.pathChangeClient[*].numApps = 1
**.pathChangeClient[*].app[*].typename  = "TcpSessionApp"
**.pathChangeClient[*].app[0].tClose = -1s
**.pathChangeClient[*].app[0].sendBytes = 2GB
**.pathChangeClient[*].app[0].dataTransferMode = "bytecount"
**.pathChangeClient[*].app[0].statistic-recording = true

**.pathChangeServer[*].numApps = 1
**.pathChangeServer[*].app[*].typename  = "TcpSinkApp"
**.pathChangeServer[*].app[*].serverThreadModuleType = "orbtcp.applications.tcpapp.TcpThroughputSinkAppThread"

**.pathChangeServer[*].app[*].*.thrMeasurementInterval = 0.3s
**.pathChangeServer[*].app[*].*.thrMeasurementBandwidth = 50000000


**.ppp[*].queue.packetCapacity = 428 

**.numberOfConstantFlows = 5 

*.constantClient[*].app[0].connectAddress = "constantServer[" + string(parentIndex()) +"]"
*.constantClient[*].app[0].tOpen = 0s
*.constantClient[*].app[0].tSend = uniform(0s,2s)

*.configurator.config = xml("<config><interface hosts='**' address='10.x.x.x' netmask='255.x.x.x'/><autoroute metric='weight'/></config>")

*.configurator.updateInterval = 100s

*.configurator.optimizeRoutes = false

*.*.forwarding = false

[Config TwoFlows50ms50msPathChange]
extends = General
**.numberOfPathChangeFlows = 2
*.pathChangeClient[*].app[0].connectAddress = "pathChangeServer[" + string(parentIndex()) +"]"
*.pathChangeClient[*].app[0].tOpen = 0s
*.pathChangeClient[*].app[0].tSend = uniform(0s,2s)
*.scenarioManager.script = xmldoc("../scenarios/pathChangeScenarios/twoFlows/50-50ms.xml")
