[General]

network = simplenetworkpathchange
sim-time-limit = 200s
record-eventlog=false
cmdenv-express-mode = true
cmdenv-redirect-output = false
cmdenv-output-file = dctcpLog.txt
**.client*.tcp.conn-8.cmdenv-log-level = detail
cmdenv-log-prefix = %t | %m |


cmdenv-event-banners = false
**.cmdenv-log-level = off

**.**.tcp.conn-*.cwnd:vector.vector-recording = true
**.**.tcp.conn-*.u:vector.vector-recording = true
**.**.tcp.conn-*.U:vector.vector-recording = true
**.**.tcp.conn-*.additiveIncrease:vector.vector-recording = true
c**.**.tcp.conn-*.sharingFlows:vector.vector-recording = true
**.**.tcp.conn-*.tau:vector.vector-recording = true
**.**.tcp.conn-*.txRate:vector.vector-recording = true
**.**.tcp.conn-*.rtt:vector.vector-recording = true
**.**.tcp.conn-*.lossRecovery:vector.vector-recording = true
**.**.tcp.conn-*.srtt:vector.vector-recording = true
**.**.tcp.conn-*.queueingDelay:vector.vector-recording = true
**.**.tcp.conn-*.estimatedRtt:vector.vector-recording = true
**.**.tcp.conn-*.avgRtt:vector.vector-recording = true
**.**.tcp.conn-*.ssthresh:vector.vector-recording = true
**.**.queue.queueLength:vector.vector-recording = true
**.**.queue.queueingTime:vector.vector-recording = true
**.**.queue.avgRttQueue:vector.vector-recording = true
**.**.ReceiverSideThroughput:vector.vector-recording = true
**.**.numberOfFlows:vector.vector-recording = true
**.**.alpha:vector.vector-recording = true
**.**.mbytesInFlight:vector.vector-recording = true
**.**.persistentQueueingDelay:vector.vector-recording = true
**.scalar-recording=false
**.vector-recording=true
**.bin-recording=false

**.tcp.typename = "Bbr"
**.tcp.tcpAlgorithmClass = "BbrFlavour"
**.tcp.advertisedWindow = 200000000
**.tcp.windowScalingSupport = true
**.tcp.windowScalingFactor = -1
**.tcp.increasedIWEnabled = true
**.tcp.delayedAcksEnabled = false
**.tcp.timestampSupport = true
**.tcp.ecnWillingness = false
**.tcp.nagleEnabled = true
**.tcp.stopOperationTimeout = 4000s
**.tcp.mss = 1448
**.tcp.sackSupport = true
**.constantClient[*].numApps = 1
**.constantClient[*].app[*].typename  = "BbrSessionApp"
**.constantClient[*].app[0].tClose = -1s
**.constantClient[*].app[0].sendBytes = 2GB
**.constantClient[*].app[0].dataTransferMode = "bytecount"
**.constantClient[*].app[0].statistic-recording = true

**.constantServer[*].numApps = 1
**.constantServer[*].app[*].typename  = "TcpSinkApp"
**.constantServer[*].app[*].serverThreadModuleType = "orbtcp.applications.tcpapp.TcpThroughputSinkAppThread"

**.constantServer[*].app[*].*.thrMeasurementInterval = 0.5s
**.constantServer[*].app[*].*.thrMeasurementBandwidth = 125000000

**.pathChangeClient[*].numApps = 1
**.pathChangeClient[*].app[*].typename  = "BbrSessionApp"
**.pathChangeClient[*].app[0].tClose = -1s
**.pathChangeClient[*].app[0].sendBytes = 2GB
**.pathChangeClient[*].app[0].dataTransferMode = "bytecount"
**.pathChangeClient[*].app[0].statistic-recording = true

**.pathChangeServer[*].numApps = 1
**.pathChangeServer[*].app[*].typename  = "TcpSinkApp"
**.pathChangeServer[*].app[*].serverThreadModuleType = "orbtcp.applications.tcpapp.TcpThroughputSinkAppThread"

**.pathChangeServer[*].app[*].*.thrMeasurementInterval = 0.5s
**.pathChangeServer[*].app[*].*.thrMeasurementBandwidth = 125000000

**.ppp[*].queue.typename = "DropTailQueue"

**.numberOfConstantFlows = 5 

*.constantClient[*].app[0].connectAddress = "constantServer[" + string(parentIndex()) +"]"
*.constantClient[*].app[0].tOpen = 0s
*.constantClient[*].app[0].tSend = uniform(0s,90s)

*.configurator.config = xml("<config><interface hosts='**' address='10.x.x.x' netmask='255.x.x.x'/><autoroute metric='weight'/></config>")

*.configurator.updateInterval = 100.000001s

*.configurator.optimizeRoutes = false

*.*.forwarding = false

[Config TwoFlows50ms50msPathChange]
extends = General

**.numberOfPathChangeFlows = 2

*.pathChangeClient[*].app[0].connectAddress = "pathChangeServer[" + string(parentIndex()) +"]"
*.pathChangeClient[*].app[0].tOpen = 0s
*.pathChangeClient[*].app[0].tSend = uniform(0s,40s)

**.ppp[*].queue.packetCapacity = 6420

*.scenarioManager.script = xmldoc("../scenarios/pathChangeScenarios/twoFlows/50-50ms.xml")

**.tcp.initialSsthresh = 937320

[Config TenFlows1ms1ms25ms25ms50ms50ms75ms75ms100ms100msPathChange]
extends = General

**.numberOfPathChangeFlows = 10

*.pathChangeClient[*].app[0].connectAddress = "pathChangeServer[" + string(parentIndex()) +"]"
*.pathChangeClient[*].app[0].tOpen = 0s
*.pathChangeClient[*].app[0].tSend = uniform(0s,40s)

**.ppp[*].queue.packetCapacity = 1284

*.scenarioManager.script = xmldoc("../scenarios/pathChangeScenarios/tenFlows/1-1-25-25-50-50-75-75-100-100ms.xml")

**.tcp.initialSsthresh = 1874640

[Config TwentyfiveFlows5ms9ms13ms17ms21ms25ms29ms33ms37ms41ms45ms49ms53ms57ms61ms65ms69ms73ms77ms81ms85ms89ms93ms97ms100msPathChange]
extends = General

**.numberOfPathChangeFlows = 25

*.pathChangeClient[*].app[0].connectAddress = "pathChangeServer[" + string(parentIndex()) +"]"
*.pathChangeClient[*].app[0].tOpen = 0s
*.pathChangeClient[*].app[0].tSend = uniform(0s,40s)

**.ppp[*].queue.packetCapacity = 1284

*.scenarioManager.script = xmldoc("../scenarios/pathChangeScenarios/twentyfiveFlows/5-9-13-17-21-25-29-33-37-41-45-49-53-57-61-65-69-73-77-81-85-89-93-97-100ms.xml")

**.tcp.initialSsthresh = 1874640
