[General]

network = simplenetwork
sim-time-limit = 20s
record-eventlog=false
cmdenv-express-mode = true
cmdenv-redirect-output = false
cmdenv-output-file = dctcpLog.txt
**.client*.tcp.conn-8.cmdenv-log-level = detail
cmdenv-log-prefix = %t | %m |


cmdenv-event-banners = false
**.cmdenv-log-level = off

**.**.tcp.conn-*.cwnd:vector.vector-recording = true
**.**.tcp.conn-*.u:vector.vector-recording = true
**.**.tcp.conn-*.U:vector.vector-recording = true
**.**.tcp.conn-*.additiveIncrease:vector.vector-recording = true
c**.**.tcp.conn-*.sharingFlows:vector.vector-recording = true
**.**.tcp.conn-*.tau:vector.vector-recording = true
**.**.tcp.conn-*.txRate:vector.vector-recording = true
**.**.tcp.conn-*.rtt:vector.vector-recording = true
**.**.tcp.conn-*.lossRecovery:vector.vector-recording = true
**.**.tcp.conn-*.srtt:vector.vector-recording = true
**.**.tcp.conn-*.queueingDelay:vector.vector-recording = true
**.**.tcp.conn-*.estimatedRtt:vector.vector-recording = true
**.**.tcp.conn-*.avgRtt:vector.vector-recording = true
**.**.tcp.conn-*.ssthresh:vector.vector-recording = true
**.**.queue.queueLength:vector.vector-recording = true
**.**.queue.queueingTime:vector.vector-recording = true
**.**.queue.avgRttQueue:vector.vector-recording = true
**.**.ReceiverSideThroughput:vector.vector-recording = true
**.**.numberOfFlows:vector.vector-recording = true
**.**.alpha:vector.vector-recording = true
**.**.persistentQueueingDelay:vector.vector-recording = true
**.scalar-recording=false
**.vector-recording=false
**.bin-recording=false

**.server[*].app[*].*.thrMeasurementInterval = 0.3s
**.server[*].app[*].*.thrMeasurementBandwidth = 125000000

**.tcp.typename = "Orbtcp"
**.tcp.tcpAlgorithmClass = "OrbtcpHalfMDFlavour"
**.tcp.advertisedWindow = 200000000
**.tcp.windowScalingSupport = true
**.tcp.windowScalingFactor = -1
**.tcp.increasedIWEnabled = true
**.tcp.delayedAcksEnabled = false
**.tcp.ecnWillingness = false
**.tcp.nagleEnabled = true
**.tcp.stopOperationTimeout = 4000s
**.tcp.mss = 1460
**.tcp.sackSupport = true
**.tcp.initialSsthresh = 0

**.client[*].numApps = 1
**.client[*].app[*].typename  = "OrbtcpSessionApp"
*.client[*].app[0].tClose = -1s
*.client[*].app[0].sendBytes = 2GB
*.client[*].app[0].dataTransferMode = "bytecount"
*.client[*].app[0].statistic-recording = true

**.server[*].numApps = 1
**.server[*].app[*].typename  = "TcpSinkApp"
**.server[*].app[*].serverThreadModuleType = "orbtcp.applications.tcpapp.TcpThroughputSinkAppThread"

**.ppp[*].queue.typename = "IntQueue"

**.additiveIncreasePercent = ${0.01, 0.02, 0.03,0.04,0.05}
**.eta = ${0.8, 0.85, 0.90,0.95,1.0}

[Config OneFlow1ms]
extends = General

**.numberOfFlows = 1

*.client[0].app[0].connectAddress = "server[0]"
*.client[0].app[0].tOpen = 0s
*.client[0].app[0].tSend = 0s

*.client[*].app[0].connectAddress = "server[" + string(parentIndex()) +"]"
*.client[*].app[0].tOpen = 0s
*.client[*].app[0].tSend = uniform(0s,5s)

**.ppp[*].queue.packetCapacity = 12

*.scenarioManager.script = xmldoc("../scenarios/oneFlows/1ms.xml")

[Config OneFlow5ms]
extends = General

**.numberOfFlows = 1

*.client[0].app[0].connectAddress = "server[0]"
*.client[0].app[0].tOpen = 0s
*.client[0].app[0].tSend = 0s

*.client[*].app[0].connectAddress = "server[" + string(parentIndex()) +"]"
*.client[*].app[0].tOpen = 0s
*.client[*].app[0].tSend = uniform(0s,5s)

**.ppp[*].queue.packetCapacity = 64

*.scenarioManager.script = xmldoc("../scenarios/oneFlows/5ms.xml")

[Config OneFlow25ms]
extends = General

**.numberOfFlows = 1

*.client[0].app[0].connectAddress = "server[0]"
*.client[0].app[0].tOpen = 0s
*.client[0].app[0].tSend = 0s

*.client[*].app[0].connectAddress = "server[" + string(parentIndex()) +"]"
*.client[*].app[0].tOpen = 0s
*.client[*].app[0].tSend = uniform(0s,5s)

**.ppp[*].queue.packetCapacity = 321

*.scenarioManager.script = xmldoc("../scenarios/oneFlows/25ms.xml")

[Config OneFlow75ms]
extends = General

**.numberOfFlows = 1

*.client[0].app[0].connectAddress = "server[0]"
*.client[0].app[0].tOpen = 0s
*.client[0].app[0].tSend = 0s

*.client[*].app[0].connectAddress = "server[" + string(parentIndex()) +"]"
*.client[*].app[0].tOpen = 0s
*.client[*].app[0].tSend = uniform(0s,5s)

**.ppp[*].queue.packetCapacity = 963

*.scenarioManager.script = xmldoc("../scenarios/oneFlows/75ms.xml")

[Config OneFlow100ms]
extends = General

**.numberOfFlows = 1

*.client[0].app[0].connectAddress = "server[0]"
*.client[0].app[0].tOpen = 0s
*.client[0].app[0].tSend = 0s

*.client[*].app[0].connectAddress = "server[" + string(parentIndex()) +"]"
*.client[*].app[0].tOpen = 0s
*.client[*].app[0].tSend = uniform(0s,5s)

**.ppp[*].queue.packetCapacity = 1284

*.scenarioManager.script = xmldoc("../scenarios/oneFlows/100ms.xml")

[Config OneFlow50ms]
extends = General

**.numberOfFlows = 1

*.client[0].app[0].connectAddress = "server[0]"
*.client[0].app[0].tOpen = 0s
*.client[0].app[0].tSend = 0s

*.client[*].app[0].connectAddress = "server[" + string(parentIndex()) +"]"
*.client[*].app[0].tOpen = 0s
*.client[*].app[0].tSend = uniform(0s,5s)

**.ppp[*].queue.packetCapacity = 642

*.scenarioManager.script = xmldoc("../scenarios/oneFlows/50ms.xml")

[Config TwoFlows5ms100ms]
extends = General

**.numberOfFlows = 2

*.client[0].app[0].connectAddress = "server[0]"
*.client[0].app[0].tOpen = 0s
*.client[0].app[0].tSend = 0s

*.client[*].app[0].connectAddress = "server[" + string(parentIndex()) +"]"
*.client[*].app[0].tOpen = 0s
*.client[*].app[0].tSend = uniform(0s,5s)

**.ppp[*].queue.packetCapacity = 1284

*.scenarioManager.script = xmldoc("../scenarios/twoFlows/5-100ms.xml")

[Config TwoFlows100ms100ms]
extends = General

**.numberOfFlows = 2

*.client[0].app[0].connectAddress = "server[0]"
*.client[0].app[0].tOpen = 0s
*.client[0].app[0].tSend = 0s

*.client[*].app[0].connectAddress = "server[" + string(parentIndex()) +"]"
*.client[*].app[0].tOpen = 0s
*.client[*].app[0].tSend = uniform(0s,5s)

**.ppp[*].queue.packetCapacity = 1284

*.scenarioManager.script = xmldoc("../scenarios/twoFlows/100-100ms.xml")

[Config TwoFlows75ms100ms]
extends = General

**.numberOfFlows = 2

*.client[0].app[0].connectAddress = "server[0]"
*.client[0].app[0].tOpen = 0s
*.client[0].app[0].tSend = 0s

*.client[*].app[0].connectAddress = "server[" + string(parentIndex()) +"]"
*.client[*].app[0].tOpen = 0s
*.client[*].app[0].tSend = uniform(0s,5s)

**.ppp[*].queue.packetCapacity = 1284

*.scenarioManager.script = xmldoc("../scenarios/twoFlows/75-100ms.xml")

[Config TwoFlows25ms25ms]
extends = General

**.numberOfFlows = 2

*.client[0].app[0].connectAddress = "server[0]"
*.client[0].app[0].tOpen = 0s
*.client[0].app[0].tSend = 0s

*.client[*].app[0].connectAddress = "server[" + string(parentIndex()) +"]"
*.client[*].app[0].tOpen = 0s
*.client[*].app[0].tSend = uniform(0s,5s)

**.ppp[*].queue.packetCapacity = 321

*.scenarioManager.script = xmldoc("../scenarios/twoFlows/25-25ms.xml")

[Config TwoFlows25ms100ms]
extends = General

**.numberOfFlows = 2

*.client[0].app[0].connectAddress = "server[0]"
*.client[0].app[0].tOpen = 0s
*.client[0].app[0].tSend = 0s

*.client[*].app[0].connectAddress = "server[" + string(parentIndex()) +"]"
*.client[*].app[0].tOpen = 0s
*.client[*].app[0].tSend = uniform(0s,5s)

**.ppp[*].queue.packetCapacity = 1284

*.scenarioManager.script = xmldoc("../scenarios/twoFlows/25-100ms.xml")

[Config TwoFlows1ms1ms]
extends = General

**.numberOfFlows = 2

*.client[0].app[0].connectAddress = "server[0]"
*.client[0].app[0].tOpen = 0s
*.client[0].app[0].tSend = 0s

*.client[*].app[0].connectAddress = "server[" + string(parentIndex()) +"]"
*.client[*].app[0].tOpen = 0s
*.client[*].app[0].tSend = uniform(0s,5s)

**.ppp[*].queue.packetCapacity = 12

*.scenarioManager.script = xmldoc("../scenarios/twoFlows/1-1ms.xml")

[Config TwoFlows10ms100ms]
extends = General

**.numberOfFlows = 2

*.client[0].app[0].connectAddress = "server[0]"
*.client[0].app[0].tOpen = 0s
*.client[0].app[0].tSend = 0s

*.client[*].app[0].connectAddress = "server[" + string(parentIndex()) +"]"
*.client[*].app[0].tOpen = 0s
*.client[*].app[0].tSend = uniform(0s,5s)

**.ppp[*].queue.packetCapacity = 1284

*.scenarioManager.script = xmldoc("../scenarios/twoFlows/10-100ms.xml")

[Config TwoFlows50ms50ms]
extends = General

**.numberOfFlows = 2

*.client[0].app[0].connectAddress = "server[0]"
*.client[0].app[0].tOpen = 0s
*.client[0].app[0].tSend = 0s

*.client[*].app[0].connectAddress = "server[" + string(parentIndex()) +"]"
*.client[*].app[0].tOpen = 0s
*.client[*].app[0].tSend = uniform(0s,5s)

**.ppp[*].queue.packetCapacity = 642

*.scenarioManager.script = xmldoc("../scenarios/twoFlows/50-50ms.xml")

[Config TwoFlows2ms100ms]
extends = General

**.numberOfFlows = 2

*.client[0].app[0].connectAddress = "server[0]"
*.client[0].app[0].tOpen = 0s
*.client[0].app[0].tSend = 0s

*.client[*].app[0].connectAddress = "server[" + string(parentIndex()) +"]"
*.client[*].app[0].tOpen = 0s
*.client[*].app[0].tSend = uniform(0s,5s)

**.ppp[*].queue.packetCapacity = 1284

*.scenarioManager.script = xmldoc("../scenarios/twoFlows/2-100ms.xml")

[Config TwoFlows75ms75ms]
extends = General

**.numberOfFlows = 2

*.client[0].app[0].connectAddress = "server[0]"
*.client[0].app[0].tOpen = 0s
*.client[0].app[0].tSend = 0s

*.client[*].app[0].connectAddress = "server[" + string(parentIndex()) +"]"
*.client[*].app[0].tOpen = 0s
*.client[*].app[0].tSend = uniform(0s,5s)

**.ppp[*].queue.packetCapacity = 963

*.scenarioManager.script = xmldoc("../scenarios/twoFlows/75-75ms.xml")

[Config TwoFlows1ms100ms]
extends = General

**.numberOfFlows = 2

*.client[0].app[0].connectAddress = "server[0]"
*.client[0].app[0].tOpen = 0s
*.client[0].app[0].tSend = 0s

*.client[*].app[0].connectAddress = "server[" + string(parentIndex()) +"]"
*.client[*].app[0].tOpen = 0s
*.client[*].app[0].tSend = uniform(0s,5s)

**.ppp[*].queue.packetCapacity = 1284

*.scenarioManager.script = xmldoc("../scenarios/twoFlows/1-100ms.xml")

[Config TwoFlows50ms100ms]
extends = General

**.numberOfFlows = 2

*.client[0].app[0].connectAddress = "server[0]"
*.client[0].app[0].tOpen = 0s
*.client[0].app[0].tSend = 0s

*.client[*].app[0].connectAddress = "server[" + string(parentIndex()) +"]"
*.client[*].app[0].tOpen = 0s
*.client[*].app[0].tSend = uniform(0s,5s)

**.ppp[*].queue.packetCapacity = 1284

*.scenarioManager.script = xmldoc("../scenarios/twoFlows/50-100ms.xml")

[Config FiveFlows1ms100ms100ms100ms100ms]
extends = General

**.numberOfFlows = 5

*.client[0].app[0].connectAddress = "server[0]"
*.client[0].app[0].tOpen = 0s
*.client[0].app[0].tSend = 0s

*.client[*].app[0].connectAddress = "server[" + string(parentIndex()) +"]"
*.client[*].app[0].tOpen = 0s
*.client[*].app[0].tSend = uniform(0s,5s)

**.ppp[*].queue.packetCapacity = 1284

*.scenarioManager.script = xmldoc("../scenarios/fiveFlows/1-100-100-100-100ms.xml")

[Config FiveFlows50ms50ms50ms50ms50ms]
extends = General

**.numberOfFlows = 5

*.client[0].app[0].connectAddress = "server[0]"
*.client[0].app[0].tOpen = 0s
*.client[0].app[0].tSend = 0s

*.client[*].app[0].connectAddress = "server[" + string(parentIndex()) +"]"
*.client[*].app[0].tOpen = 0s
*.client[*].app[0].tSend = uniform(0s,5s)

**.ppp[*].queue.packetCapacity = 642

*.scenarioManager.script = xmldoc("../scenarios/fiveFlows/50-50-50-50-50ms.xml")

[Config FiveFlows1ms1ms100ms100ms100ms]
extends = General

**.numberOfFlows = 5

*.client[0].app[0].connectAddress = "server[0]"
*.client[0].app[0].tOpen = 0s
*.client[0].app[0].tSend = 0s

*.client[*].app[0].connectAddress = "server[" + string(parentIndex()) +"]"
*.client[*].app[0].tOpen = 0s
*.client[*].app[0].tSend = uniform(0s,5s)

**.ppp[*].queue.packetCapacity = 1284

*.scenarioManager.script = xmldoc("../scenarios/fiveFlows/1-1-100-100-100ms.xml")

[Config FiveFlows1ms25ms50ms75ms100ms]
extends = General

**.numberOfFlows = 5

*.client[0].app[0].connectAddress = "server[0]"
*.client[0].app[0].tOpen = 0s
*.client[0].app[0].tSend = 0s

*.client[*].app[0].connectAddress = "server[" + string(parentIndex()) +"]"
*.client[*].app[0].tOpen = 0s
*.client[*].app[0].tSend = uniform(0s,5s)

**.ppp[*].queue.packetCapacity = 1284

*.scenarioManager.script = xmldoc("../scenarios/fiveFlows/1-25-50-75-100ms.xml")

[Config FiveFlows1ms1ms1ms1ms1ms]
extends = General

**.numberOfFlows = 5

*.client[0].app[0].connectAddress = "server[0]"
*.client[0].app[0].tOpen = 0s
*.client[0].app[0].tSend = 0s

*.client[*].app[0].connectAddress = "server[" + string(parentIndex()) +"]"
*.client[*].app[0].tOpen = 0s
*.client[*].app[0].tSend = uniform(0s,5s)

**.ppp[*].queue.packetCapacity = 12

*.scenarioManager.script = xmldoc("../scenarios/fiveFlows/1-1-1-1-1ms.xml")

[Config FiveFlows1ms1ms1ms100ms100ms]
extends = General

**.numberOfFlows = 5

*.client[0].app[0].connectAddress = "server[0]"
*.client[0].app[0].tOpen = 0s
*.client[0].app[0].tSend = 0s

*.client[*].app[0].connectAddress = "server[" + string(parentIndex()) +"]"
*.client[*].app[0].tOpen = 0s
*.client[*].app[0].tSend = uniform(0s,5s)

**.ppp[*].queue.packetCapacity = 1284

*.scenarioManager.script = xmldoc("../scenarios/fiveFlows/1-1-1-100-100ms.xml")

[Config FiveFlows25ms50ms50ms50ms100ms]
extends = General

**.numberOfFlows = 5

*.client[0].app[0].connectAddress = "server[0]"
*.client[0].app[0].tOpen = 0s
*.client[0].app[0].tSend = 0s

*.client[*].app[0].connectAddress = "server[" + string(parentIndex()) +"]"
*.client[*].app[0].tOpen = 0s
*.client[*].app[0].tSend = uniform(0s,5s)

**.ppp[*].queue.packetCapacity = 1284

*.scenarioManager.script = xmldoc("../scenarios/fiveFlows/25-50-50-50-100ms.xml")

[Config FiveFlows1ms5ms5ms5ms100ms]
extends = General

**.numberOfFlows = 5

*.client[0].app[0].connectAddress = "server[0]"
*.client[0].app[0].tOpen = 0s
*.client[0].app[0].tSend = 0s

*.client[*].app[0].connectAddress = "server[" + string(parentIndex()) +"]"
*.client[*].app[0].tOpen = 0s
*.client[*].app[0].tSend = uniform(0s,5s)

**.ppp[*].queue.packetCapacity = 1284

*.scenarioManager.script = xmldoc("../scenarios/fiveFlows/1-5-5-5-100ms.xml")

[Config FiveFlows1ms1ms1ms1ms100ms]
extends = General

**.numberOfFlows = 5

*.client[0].app[0].connectAddress = "server[0]"
*.client[0].app[0].tOpen = 0s
*.client[0].app[0].tSend = 0s

*.client[*].app[0].connectAddress = "server[" + string(parentIndex()) +"]"
*.client[*].app[0].tOpen = 0s
*.client[*].app[0].tSend = uniform(0s,5s)

**.ppp[*].queue.packetCapacity = 1284

*.scenarioManager.script = xmldoc("../scenarios/fiveFlows/1-1-1-1-100ms.xml")

[Config FiveFlows1ms5ms25ms75ms100ms]
extends = General

**.numberOfFlows = 5

*.client[0].app[0].connectAddress = "server[0]"
*.client[0].app[0].tOpen = 0s
*.client[0].app[0].tSend = 0s

*.client[*].app[0].connectAddress = "server[" + string(parentIndex()) +"]"
*.client[*].app[0].tOpen = 0s
*.client[*].app[0].tSend = uniform(0s,5s)

**.ppp[*].queue.packetCapacity = 1284

*.scenarioManager.script = xmldoc("../scenarios/fiveFlows/1-5-25-75-100ms.xml")

[Config TenFlows1ms1ms25ms25ms25ms25ms75ms75ms100ms100ms]
extends = General

**.numberOfFlows = 10

*.client[0].app[0].connectAddress = "server[0]"
*.client[0].app[0].tOpen = 0s
*.client[0].app[0].tSend = 0s

*.client[*].app[0].connectAddress = "server[" + string(parentIndex()) +"]"
*.client[*].app[0].tOpen = 0s
*.client[*].app[0].tSend = uniform(0s,5s)

**.ppp[*].queue.packetCapacity = 1284

*.scenarioManager.script = xmldoc("../scenarios/tenFlows/1-1-25-25-25-25-75-75-100-100ms.xml")

[Config TenFlows1ms25ms25ms25ms25ms30ms50ms75ms75ms100ms]
extends = General

**.numberOfFlows = 10

*.client[0].app[0].connectAddress = "server[0]"
*.client[0].app[0].tOpen = 0s
*.client[0].app[0].tSend = 0s

*.client[*].app[0].connectAddress = "server[" + string(parentIndex()) +"]"
*.client[*].app[0].tOpen = 0s
*.client[*].app[0].tSend = uniform(0s,5s)

**.ppp[*].queue.packetCapacity = 1284

*.scenarioManager.script = xmldoc("../scenarios/tenFlows/1-25-25-25-25-30-50-75-75-100ms.xml")

[Config TenFlows1ms1ms1ms1ms1ms25ms75ms75ms100ms100ms]
extends = General

**.numberOfFlows = 10

*.client[0].app[0].connectAddress = "server[0]"
*.client[0].app[0].tOpen = 0s
*.client[0].app[0].tSend = 0s

*.client[*].app[0].connectAddress = "server[" + string(parentIndex()) +"]"
*.client[*].app[0].tOpen = 0s
*.client[*].app[0].tSend = uniform(0s,5s)

**.ppp[*].queue.packetCapacity = 1284

*.scenarioManager.script = xmldoc("../scenarios/tenFlows/1-1-1-1-1-25-75-75-100-100ms.xml")

[Config TenFlows1ms1ms25ms25ms50ms50ms75ms75ms100ms100ms]
extends = General

**.numberOfFlows = 10

*.client[0].app[0].connectAddress = "server[0]"
*.client[0].app[0].tOpen = 0s
*.client[0].app[0].tSend = 0s

*.client[*].app[0].connectAddress = "server[" + string(parentIndex()) +"]"
*.client[*].app[0].tOpen = 0s
*.client[*].app[0].tSend = uniform(0s,5s)

**.ppp[*].queue.packetCapacity = 1284

*.scenarioManager.script = xmldoc("../scenarios/tenFlows/1-1-25-25-50-50-75-75-100-100ms.xml")

[Config TenFlows1ms1ms50ms50ms50ms50ms75ms75ms100ms100ms]
extends = General

**.numberOfFlows = 10

*.client[0].app[0].connectAddress = "server[0]"
*.client[0].app[0].tOpen = 0s
*.client[0].app[0].tSend = 0s

*.client[*].app[0].connectAddress = "server[" + string(parentIndex()) +"]"
*.client[*].app[0].tOpen = 0s
*.client[*].app[0].tSend = uniform(0s,5s)

**.ppp[*].queue.packetCapacity = 1284

*.scenarioManager.script = xmldoc("../scenarios/tenFlows/1-1-50-50-50-50-75-75-100-100ms.xml")

[Config TwoFlows1ms100msAvgRTTVal0msAlphaVal0_1]
extends = General

**.numberOfFlows = 2

*.client[0].app[0].connectAddress = "server[0]"
*.client[0].app[0].tOpen = 0s
*.client[0].app[0].tSend = 0s

*.client[*].app[0].connectAddress = "server[" + string(parentIndex()) +"]"
*.client[*].app[0].tOpen = 0s
*.client[*].app[0].tSend = uniform(0s,5s)

**.ppp[*].queue.packetCapacity = 1284

**.alpha = 0.1
**.fixedAvgRTTVal = 0.0

*.scenarioManager.script = xmldoc("../scenarios/twoFlows/1-100ms.xml")

[Config TwoFlows1ms100msAvgRTTVal0msAlphaVal0_2]
extends = General

**.numberOfFlows = 2

*.client[0].app[0].connectAddress = "server[0]"
*.client[0].app[0].tOpen = 0s
*.client[0].app[0].tSend = 0s

*.client[*].app[0].connectAddress = "server[" + string(parentIndex()) +"]"
*.client[*].app[0].tOpen = 0s
*.client[*].app[0].tSend = uniform(0s,5s)

**.ppp[*].queue.packetCapacity = 1284

**.alpha = 0.2
**.fixedAvgRTTVal = 0.0

*.scenarioManager.script = xmldoc("../scenarios/twoFlows/1-100ms.xml")

[Config TwoFlows1ms100msAvgRTTVal0msAlphaVal0_3]
extends = General

**.numberOfFlows = 2

*.client[0].app[0].connectAddress = "server[0]"
*.client[0].app[0].tOpen = 0s
*.client[0].app[0].tSend = 0s

*.client[*].app[0].connectAddress = "server[" + string(parentIndex()) +"]"
*.client[*].app[0].tOpen = 0s
*.client[*].app[0].tSend = uniform(0s,5s)

**.ppp[*].queue.packetCapacity = 1284

**.alpha = 0.3
**.fixedAvgRTTVal = 0.0

*.scenarioManager.script = xmldoc("../scenarios/twoFlows/1-100ms.xml")

[Config TwoFlows1ms100msAvgRTTVal0msAlphaVal0_4]
extends = General

**.numberOfFlows = 2

*.client[0].app[0].connectAddress = "server[0]"
*.client[0].app[0].tOpen = 0s
*.client[0].app[0].tSend = 0s

*.client[*].app[0].connectAddress = "server[" + string(parentIndex()) +"]"
*.client[*].app[0].tOpen = 0s
*.client[*].app[0].tSend = uniform(0s,5s)

**.ppp[*].queue.packetCapacity = 1284

**.alpha = 0.4
**.fixedAvgRTTVal = 0.0

*.scenarioManager.script = xmldoc("../scenarios/twoFlows/1-100ms.xml")

[Config TwoFlows1ms100msAvgRTTVal0msAlphaVal0_5]
extends = General

**.numberOfFlows = 2

*.client[0].app[0].connectAddress = "server[0]"
*.client[0].app[0].tOpen = 0s
*.client[0].app[0].tSend = 0s

*.client[*].app[0].connectAddress = "server[" + string(parentIndex()) +"]"
*.client[*].app[0].tOpen = 0s
*.client[*].app[0].tSend = uniform(0s,5s)

**.ppp[*].queue.packetCapacity = 1284

**.alpha = 0.5
**.fixedAvgRTTVal = 0.0

*.scenarioManager.script = xmldoc("../scenarios/twoFlows/1-100ms.xml")

[Config TwoFlows1ms100msAvgRTTVal0msAlphaVal0_6]
extends = General

**.numberOfFlows = 2

*.client[0].app[0].connectAddress = "server[0]"
*.client[0].app[0].tOpen = 0s
*.client[0].app[0].tSend = 0s

*.client[*].app[0].connectAddress = "server[" + string(parentIndex()) +"]"
*.client[*].app[0].tOpen = 0s
*.client[*].app[0].tSend = uniform(0s,5s)

**.ppp[*].queue.packetCapacity = 1284

**.alpha = 0.6
**.fixedAvgRTTVal = 0.0

*.scenarioManager.script = xmldoc("../scenarios/twoFlows/1-100ms.xml")

[Config TwoFlows1ms100msAvgRTTVal0msAlphaVal0_7]
extends = General

**.numberOfFlows = 2

*.client[0].app[0].connectAddress = "server[0]"
*.client[0].app[0].tOpen = 0s
*.client[0].app[0].tSend = 0s

*.client[*].app[0].connectAddress = "server[" + string(parentIndex()) +"]"
*.client[*].app[0].tOpen = 0s
*.client[*].app[0].tSend = uniform(0s,5s)

**.ppp[*].queue.packetCapacity = 1284

**.alpha = 0.7
**.fixedAvgRTTVal = 0.0

*.scenarioManager.script = xmldoc("../scenarios/twoFlows/1-100ms.xml")

[Config TwoFlows1ms100msAvgRTTVal0msAlphaVal0_8]
extends = General

**.numberOfFlows = 2

*.client[0].app[0].connectAddress = "server[0]"
*.client[0].app[0].tOpen = 0s
*.client[0].app[0].tSend = 0s

*.client[*].app[0].connectAddress = "server[" + string(parentIndex()) +"]"
*.client[*].app[0].tOpen = 0s
*.client[*].app[0].tSend = uniform(0s,5s)

**.ppp[*].queue.packetCapacity = 1284

**.alpha = 0.8
**.fixedAvgRTTVal = 0.0

*.scenarioManager.script = xmldoc("../scenarios/twoFlows/1-100ms.xml")

[Config TwoFlows1ms100msAvgRTTVal0msAlphaVal0_9]
extends = General

**.numberOfFlows = 2

*.client[0].app[0].connectAddress = "server[0]"
*.client[0].app[0].tOpen = 0s
*.client[0].app[0].tSend = 0s

*.client[*].app[0].connectAddress = "server[" + string(parentIndex()) +"]"
*.client[*].app[0].tOpen = 0s
*.client[*].app[0].tSend = uniform(0s,5s)

**.ppp[*].queue.packetCapacity = 1284

**.alpha = 0.9
**.fixedAvgRTTVal = 0.0

*.scenarioManager.script = xmldoc("../scenarios/twoFlows/1-100ms.xml")

[Config TwoFlows1ms100msAvgRTTVal0msAlphaVal1_0]
extends = General

**.numberOfFlows = 2

*.client[0].app[0].connectAddress = "server[0]"
*.client[0].app[0].tOpen = 0s
*.client[0].app[0].tSend = 0s

*.client[*].app[0].connectAddress = "server[" + string(parentIndex()) +"]"
*.client[*].app[0].tOpen = 0s
*.client[*].app[0].tSend = uniform(0s,5s)

**.ppp[*].queue.packetCapacity = 1284

**.alpha = 1.0
**.fixedAvgRTTVal = 0.0

*.scenarioManager.script = xmldoc("../scenarios/twoFlows/1-100ms.xml")

[Config TwoFlows1ms100msAvgRTTVal0msAlphaVal0_01]
extends = General

**.numberOfFlows = 2

*.client[0].app[0].connectAddress = "server[0]"
*.client[0].app[0].tOpen = 0s
*.client[0].app[0].tSend = 0s

*.client[*].app[0].connectAddress = "server[" + string(parentIndex()) +"]"
*.client[*].app[0].tOpen = 0s
*.client[*].app[0].tSend = uniform(0s,5s)

**.ppp[*].queue.packetCapacity = 1284

**.alpha = 0.01
**.fixedAvgRTTVal = 0.0

*.scenarioManager.script = xmldoc("../scenarios/twoFlows/1-100ms.xml")

[Config TwoFlows1ms100msAvgRTTVal0msAlphaVal0_02]
extends = General

**.numberOfFlows = 2

*.client[0].app[0].connectAddress = "server[0]"
*.client[0].app[0].tOpen = 0s
*.client[0].app[0].tSend = 0s

*.client[*].app[0].connectAddress = "server[" + string(parentIndex()) +"]"
*.client[*].app[0].tOpen = 0s
*.client[*].app[0].tSend = uniform(0s,5s)

**.ppp[*].queue.packetCapacity = 1284

**.alpha = 0.02
**.fixedAvgRTTVal = 0.0

*.scenarioManager.script = xmldoc("../scenarios/twoFlows/1-100ms.xml")

[Config TwoFlows1ms100msAvgRTTVal0msAlphaVal0_03]
extends = General

**.numberOfFlows = 2

*.client[0].app[0].connectAddress = "server[0]"
*.client[0].app[0].tOpen = 0s
*.client[0].app[0].tSend = 0s

*.client[*].app[0].connectAddress = "server[" + string(parentIndex()) +"]"
*.client[*].app[0].tOpen = 0s
*.client[*].app[0].tSend = uniform(0s,5s)

**.ppp[*].queue.packetCapacity = 1284

**.alpha = 0.03
**.fixedAvgRTTVal = 0.0

*.scenarioManager.script = xmldoc("../scenarios/twoFlows/1-100ms.xml")

[Config TwoFlows1ms100msAvgRTTVal0msAlphaVal0_04]
extends = General

**.numberOfFlows = 2

*.client[0].app[0].connectAddress = "server[0]"
*.client[0].app[0].tOpen = 0s
*.client[0].app[0].tSend = 0s

*.client[*].app[0].connectAddress = "server[" + string(parentIndex()) +"]"
*.client[*].app[0].tOpen = 0s
*.client[*].app[0].tSend = uniform(0s,5s)

**.ppp[*].queue.packetCapacity = 1284

**.alpha = 0.04
**.fixedAvgRTTVal = 0.0

*.scenarioManager.script = xmldoc("../scenarios/twoFlows/1-100ms.xml")

[Config TwoFlows1ms100msAvgRTTVal0msAlphaVal0_05]
extends = General

**.numberOfFlows = 2

*.client[0].app[0].connectAddress = "server[0]"
*.client[0].app[0].tOpen = 0s
*.client[0].app[0].tSend = 0s

*.client[*].app[0].connectAddress = "server[" + string(parentIndex()) +"]"
*.client[*].app[0].tOpen = 0s
*.client[*].app[0].tSend = uniform(0s,5s)

**.ppp[*].queue.packetCapacity = 1284

**.alpha = 0.05
**.fixedAvgRTTVal = 0.0

*.scenarioManager.script = xmldoc("../scenarios/twoFlows/1-100ms.xml")

[Config TwoFlows1ms100msAvgRTTVal0msAlphaVal0_06]
extends = General

**.numberOfFlows = 2

*.client[0].app[0].connectAddress = "server[0]"
*.client[0].app[0].tOpen = 0s
*.client[0].app[0].tSend = 0s

*.client[*].app[0].connectAddress = "server[" + string(parentIndex()) +"]"
*.client[*].app[0].tOpen = 0s
*.client[*].app[0].tSend = uniform(0s,5s)

**.ppp[*].queue.packetCapacity = 1284

**.alpha = 0.06
**.fixedAvgRTTVal = 0.0

*.scenarioManager.script = xmldoc("../scenarios/twoFlows/1-100ms.xml")

[Config TwoFlows1ms100msAvgRTTVal0msAlphaVal0_07]
extends = General

**.numberOfFlows = 2

*.client[0].app[0].connectAddress = "server[0]"
*.client[0].app[0].tOpen = 0s
*.client[0].app[0].tSend = 0s

*.client[*].app[0].connectAddress = "server[" + string(parentIndex()) +"]"
*.client[*].app[0].tOpen = 0s
*.client[*].app[0].tSend = uniform(0s,5s)

**.ppp[*].queue.packetCapacity = 1284

**.alpha = 0.07
**.fixedAvgRTTVal = 0.0

*.scenarioManager.script = xmldoc("../scenarios/twoFlows/1-100ms.xml")

[Config TwoFlows1ms100msAvgRTTVal0msAlphaVal0_08]
extends = General

**.numberOfFlows = 2

*.client[0].app[0].connectAddress = "server[0]"
*.client[0].app[0].tOpen = 0s
*.client[0].app[0].tSend = 0s

*.client[*].app[0].connectAddress = "server[" + string(parentIndex()) +"]"
*.client[*].app[0].tOpen = 0s
*.client[*].app[0].tSend = uniform(0s,5s)

**.ppp[*].queue.packetCapacity = 1284

**.alpha = 0.08
**.fixedAvgRTTVal = 0.0

*.scenarioManager.script = xmldoc("../scenarios/twoFlows/1-100ms.xml")

[Config TwoFlows1ms100msAvgRTTVal0msAlphaVal0_09]
extends = General

**.numberOfFlows = 2

*.client[0].app[0].connectAddress = "server[0]"
*.client[0].app[0].tOpen = 0s
*.client[0].app[0].tSend = 0s

*.client[*].app[0].connectAddress = "server[" + string(parentIndex()) +"]"
*.client[*].app[0].tOpen = 0s
*.client[*].app[0].tSend = uniform(0s,5s)

**.ppp[*].queue.packetCapacity = 1284

**.alpha = 0.09
**.fixedAvgRTTVal = 0.0

*.scenarioManager.script = xmldoc("../scenarios/twoFlows/1-100ms.xml")

[Config TwoFlows1ms100msAvgRTTVal0msAlphaVal0_001]
extends = General

**.numberOfFlows = 2

*.client[0].app[0].connectAddress = "server[0]"
*.client[0].app[0].tOpen = 0s
*.client[0].app[0].tSend = 0s

*.client[*].app[0].connectAddress = "server[" + string(parentIndex()) +"]"
*.client[*].app[0].tOpen = 0s
*.client[*].app[0].tSend = uniform(0s,5s)

**.ppp[*].queue.packetCapacity = 1284

**.alpha = 0.001
**.fixedAvgRTTVal = 0.0

*.scenarioManager.script = xmldoc("../scenarios/twoFlows/1-100ms.xml")

[Config TwoFlows1ms100msAvgRTTVal0msAlphaVal0_002]
extends = General

**.numberOfFlows = 2

*.client[0].app[0].connectAddress = "server[0]"
*.client[0].app[0].tOpen = 0s
*.client[0].app[0].tSend = 0s

*.client[*].app[0].connectAddress = "server[" + string(parentIndex()) +"]"
*.client[*].app[0].tOpen = 0s
*.client[*].app[0].tSend = uniform(0s,5s)

**.ppp[*].queue.packetCapacity = 1284

**.alpha = 0.002
**.fixedAvgRTTVal = 0.0

*.scenarioManager.script = xmldoc("../scenarios/twoFlows/1-100ms.xml")

[Config TwoFlows1ms100msAvgRTTVal0msAlphaVal0_003]
extends = General

**.numberOfFlows = 2

*.client[0].app[0].connectAddress = "server[0]"
*.client[0].app[0].tOpen = 0s
*.client[0].app[0].tSend = 0s

*.client[*].app[0].connectAddress = "server[" + string(parentIndex()) +"]"
*.client[*].app[0].tOpen = 0s
*.client[*].app[0].tSend = uniform(0s,5s)

**.ppp[*].queue.packetCapacity = 1284

**.alpha = 0.003
**.fixedAvgRTTVal = 0.0

*.scenarioManager.script = xmldoc("../scenarios/twoFlows/1-100ms.xml")

[Config TwoFlows1ms100msAvgRTTVal0msAlphaVal0_004]
extends = General

**.numberOfFlows = 2

*.client[0].app[0].connectAddress = "server[0]"
*.client[0].app[0].tOpen = 0s
*.client[0].app[0].tSend = 0s

*.client[*].app[0].connectAddress = "server[" + string(parentIndex()) +"]"
*.client[*].app[0].tOpen = 0s
*.client[*].app[0].tSend = uniform(0s,5s)

**.ppp[*].queue.packetCapacity = 1284

**.alpha = 0.004
**.fixedAvgRTTVal = 0.0

*.scenarioManager.script = xmldoc("../scenarios/twoFlows/1-100ms.xml")

[Config TwoFlows1ms100msAvgRTTVal0msAlphaVal0_005]
extends = General

**.numberOfFlows = 2

*.client[0].app[0].connectAddress = "server[0]"
*.client[0].app[0].tOpen = 0s
*.client[0].app[0].tSend = 0s

*.client[*].app[0].connectAddress = "server[" + string(parentIndex()) +"]"
*.client[*].app[0].tOpen = 0s
*.client[*].app[0].tSend = uniform(0s,5s)

**.ppp[*].queue.packetCapacity = 1284

**.alpha = 0.005
**.fixedAvgRTTVal = 0.0

*.scenarioManager.script = xmldoc("../scenarios/twoFlows/1-100ms.xml")

[Config TwoFlows1ms100msAvgRTTVal0msAlphaVal0_006]
extends = General

**.numberOfFlows = 2

*.client[0].app[0].connectAddress = "server[0]"
*.client[0].app[0].tOpen = 0s
*.client[0].app[0].tSend = 0s

*.client[*].app[0].connectAddress = "server[" + string(parentIndex()) +"]"
*.client[*].app[0].tOpen = 0s
*.client[*].app[0].tSend = uniform(0s,5s)

**.ppp[*].queue.packetCapacity = 1284

**.alpha = 0.006
**.fixedAvgRTTVal = 0.0

*.scenarioManager.script = xmldoc("../scenarios/twoFlows/1-100ms.xml")

[Config TwoFlows1ms100msAvgRTTVal0msAlphaVal0_007]
extends = General

**.numberOfFlows = 2
